#p b3lyp/6-31G scf=tight

pccp8

0 1
 C   -1.888896   -0.179692   0.
 O   -1.49328   1.073689   0.
 O   -1.170435   -1.16659   0.
 H   -2.979488   -0.258829   0.
 H   -0.498833   1.107195   0.
 C   1.888896   0.179692   0.
 O   1.49328   -1.073689   0.
 O   1.170435   1.16659   0.
 H   2.979488   0.258829   0.
 H   0.498833   -1.107195   0.

