%nproc=8
#P TPSSTPSS/6-311+g(3df,2p) scf=tight iop(3/76=0500005000,5/33=1)
extraoverlay

8/10=90/1;9/16=-3/6;
3/5=4,6=6,7=216,11=2,16=1,25=1,30=1,74=203/1,2,3;
5/5=2,6=-2,32=1,33=1,38=5/2;

ts3; geometry from JPCA, 2005, 109, 2012-2018

0   2
      C               -0.567877    0.000051   -0.218958
      C                0.751139   -0.000036    0.041932
      H               -1.493884   -0.000488    1.531765
      H               -1.101691    0.920651   -0.408626
      H               -1.102022   -0.920234   -0.409110
      H                1.299128   -0.922344    0.173763
      H                1.298899    0.922325    0.174363




