%nproc=8
#P TPSSTPSS/6-311+g(3df,2p) scf=tight iop(3/76=0500005000,5/33=1)
extraoverlay

8/10=90/1;9/16=-3/6;
3/5=4,6=6,7=216,11=2,16=1,25=1,30=1,74=203/1,2,3;
5/5=2,6=-2,32=1,33=1,38=5/2;

ts4; geometry from JPCA, 2005, 109, 2012-2018

0  2 
      C         -0.472132    0.645933   -0.000043
      C         -1.382617   -0.363885   -0.000002
      H         -0.232044    1.164575   -0.917264
      H         -0.232342    1.164759    0.917169
      H         -1.727128   -0.809810    0.922519
      H         -1.726936   -0.810131   -0.922435
      C          1.612015   -0.242189    0.000035
      H          2.195182    0.668671   -0.001269
      H          1.589423   -0.809619   -0.918632
      H          1.590245   -0.807598    0.919969
 



