#p b3lyp/6-31G scf=tight

pccp14

0 1
 C   -1.0478252   -1.4216736   0.
 C   -1.4545034   -0.8554459   1.2062048
 C   -1.4545034   -0.8554459   -1.2062048
 C   -2.266797   0.277161   1.2069539
 C   -2.6714781   0.8450211   0.
 C   -2.266797   0.277161   -1.2069539
 H   -1.1338534   -1.2920593   -2.142315
 H   -2.5824943   0.7163066   -2.1437977
 H   -3.3030422   1.72327   0.
 H   -2.5824943   0.7163066   2.1437977
 H   -1.1338534   -1.2920593   2.142315
 H   -0.4060253   -2.2919049   0.
 C   1.0478252   1.4216736   0.
 C   1.4545034   0.8554459   -1.2062048
 C   1.4545034   0.8554459   1.2062048
 C   2.266797   -0.277161   -1.2069539
 C   2.6714781   -0.8450211   0.
 C   2.266797   -0.277161   1.2069539
 H   0.4060253   2.2919049   0.
 H   1.1338534   1.2920593   2.142315
 H   2.5824943   -0.7163066   2.1437977
 H   3.3030422   -1.72327   0.
 H   2.5824943   -0.7163066   -2.1437977
 H   1.1338534   1.2920593   -2.142315

