#p b3lyp 6-311+g(3df,2p) scf=tight nosymm

c2h6

0    1
    C      0.00000000      0.00000000     -0.76168938
    C      0.00000000      0.00000000      0.76168938
    H     -0.87860026      0.50726010     -1.15576497
    H      0.00000000     -1.01452019     -1.15576497
    H      0.87860026      0.50726010     -1.15576497
    H     -0.87860026     -0.50726010      1.15576497
    H      0.00000000      1.01452019      1.15576497
    H      0.87860026     -0.50726010      1.15576497
 
 
 
