#p b3lyp 6-311+g(3df,2p) scf=tight nosymm

c4

0    1
    C     -0.89395838     -0.89395838     -0.89395838
    C      0.89395838      0.89395838     -0.89395838
    C     -0.89395838      0.89395838      0.89395838
    C      0.89395838     -0.89395838      0.89395838
    C     -1.75628086      0.00000000      0.00000000
    C      0.00000000      0.00000000     -1.75628086
    C      0.00000000      1.75628086      0.00000000
    C      0.00000000     -1.75628086      0.00000000
    C      1.75628086      0.00000000      0.00000000
    C      0.00000000      0.00000000      1.75628086
    H     -2.40693629     -0.62388077      0.62388077
    H      0.62388077     -0.62388077     -2.40693629
    H      0.62388077      2.40693629      0.62388077
    H     -0.62388077     -2.40693629      0.62388077
    H      2.40693629     -0.62388077     -0.62388077
    H      0.62388077      0.62388077      2.40693629
    H     -0.62388077     -0.62388077      2.40693629
    H      0.62388077     -2.40693629     -0.62388077
    H      2.40693629      0.62388077      0.62388077
    H     -2.40693629      0.62388077     -0.62388077
    H     -0.62388077      0.62388077     -2.40693629
    H     -0.62388077      2.40693629     -0.62388077
    C     -1.77194980     -1.77194980     -1.77194980
    C      1.77194980      1.77194980     -1.77194980
    C     -1.77194980      1.77194980      1.77194980
    C      1.77194980     -1.77194980      1.77194980
    H      1.16253750      2.41236675     -2.41236675
    H     -2.41236675      2.41236675      1.16253750
    H     -2.41236675     -1.16253750     -2.41236675
    H      2.41236675      1.16253750     -2.41236675
    H     -1.16253750      2.41236675      2.41236675
    H     -2.41236675     -2.41236675     -1.16253750
    H      2.41236675      2.41236675     -1.16253750
    H     -2.41236675      1.16253750      2.41236675
    H     -1.16253750     -2.41236675     -2.41236675
    H      1.16253750     -2.41236675      2.41236675
    H      2.41236675     -2.41236675      1.16253750
    H      2.41236675     -1.16253750      2.41236675
 
 
 
