#p b3lyp 6-311+g(3df,2p) scf=tight nosymm

c5

0    1
    C      0.00000000      0.00000000      2.31007118
    C     -1.24716881      0.72005325      1.79458094
    H     -2.14734124      0.22204930      2.16658479
    C     -1.24721519      0.72008003      0.26638442
    H     -1.26597095      1.74862741      2.16658479
    C      0.00000000     -1.44010650      1.79458094
    H      0.00000000      0.00000000      3.40253751
    C      1.24716881      0.72005325      1.79458094
    C     -1.24721519     -0.72008003     -0.26638442
    C      0.00000000      1.44016005     -0.26638442
    H     -2.14021923      1.23565615     -0.10394921
    H     -2.14021923     -1.23565615      0.10394921
    C      0.00000000      0.00000000     -2.31007118
    C     -1.24716881     -0.72005325     -1.79458094
    C      0.00000000      1.44010650     -1.79458094
    H     -0.88137028      1.97067671     -2.16658479
    H      0.00000000      2.47131230      0.10394921
    H     -0.88137028     -1.97067671      2.16658479
    H      0.88137028     -1.97067671      2.16658479
    C      0.00000000     -1.44016005      0.26638442
    H      2.14734124      0.22204930      2.16658479
    H      1.26597095      1.74862741      2.16658479
    C      1.24721519      0.72008003      0.26638442
    H     -1.26597095     -1.74862741     -2.16658479
    H      2.14734124     -0.22204930     -2.16658479
    H      0.00000000     -2.47131230     -0.10394921
    H      2.14021923      1.23565615     -0.10394921
    C      1.24721519     -0.72008003     -0.26638442
    H     -2.14734124     -0.22204930     -2.16658479
    C      1.24716881     -0.72005325     -1.79458094
    H      0.88137028      1.97067671     -2.16658479
    H      0.00000000      0.00000000     -3.40253751
    H      2.14021923     -1.23565615      0.10394921
    H      1.26597095     -1.74862741     -2.16658479
 
 
 
