#p b3lyp 6-311+g(3df,2p) scf=tight nosymm

ch4

0    1
    C      0.00000000      0.00000000      0.00000000
    H      0.62663513     -0.62663513      0.62663513
    H     -0.62663513      0.62663513      0.62663513
    H     -0.62663513     -0.62663513     -0.62663513
    H      0.62663513      0.62663513     -0.62663513
 
 
 
