#p b3lyp 6-311+g(3df,2p) scf=tight nosymm

h1

0    1
    C     -1.93673750     -0.12951012     -0.56743475
    C     -0.56446090      0.52254015     -0.42881318
    C     -0.54416450      1.43738601      0.79259628
    C      0.56446090     -0.52254015     -0.42881318
    C      0.54416450     -1.43738601      0.79259628
    C      1.93673750      0.12951012     -0.56743475
    H     -2.18603758     -0.71291594      0.31888511
    H     -2.71285354      0.62610283     -0.68890447
    H     -1.97418345     -0.79428363     -1.43075946
    H     -0.40388892      1.14505598     -1.31493930
    H     -0.76474661      0.87861305      1.70228520
    H     -1.30335465      2.21321724      0.69447788
    H      0.41752690      1.93123948      0.92260670
    H      0.40388892     -1.14505598     -1.31493930
    H      0.76474661     -0.87861305      1.70228520
    H     -0.41752690     -1.93123948      0.92260670
    H      1.30335465     -2.21321724      0.69447788
    H      2.18603758      0.71291594      0.31888511
    H      2.71285354     -0.62610283     -0.68890447
    H      1.97418345      0.79428363     -1.43075946
 
 
 
