#p b3lyp 6-311+g(3df,2p) scf=tight nosymm

h10

0    1
    C     -2.05568755     -1.90901528      0.17873303
    C     -0.65328220     -1.43063221     -0.17990374
    C     -0.47650052      0.08586377     -0.07677744
    C      0.82534402      0.54631494     -0.75634100
    C      2.08505324      0.04628778     -0.05423623
    C      0.88135818      2.06328611     -0.90994522
    C     -0.59135905      0.55415116      1.37190948
    H     -2.80287815     -1.40810464     -0.43762459
    H     -2.15724007     -2.98148888      0.01900745
    H     -2.29542930     -1.70983562      1.22154115
    H     -0.42134575     -1.74078742     -1.20204254
    H      0.07369478     -1.92587310      0.46812524
    H     -1.29604850      0.54362853     -0.64351427
    H      0.81091010      0.11490622     -1.76244865
    H      2.17661120      0.48276437      0.94057483
    H      2.97106899      0.33491138     -0.61970096
    H      2.09639041     -1.03767044      0.04835805
    H      0.97508464      2.55524576      0.05808746
    H     -0.01608611      2.44506078     -1.39748101
    H      1.74280094      2.35815818     -1.50924986
    H      0.14747986      0.05661991      2.00104683
    H     -1.57527155      0.32712654      1.77840243
    H     -0.44466759      1.62908215      1.46347956
 
 
 
