#p b3lyp 6-311+g(3df,2p) scf=tight nosymm

h12

0    1
    C     -1.59246451     -0.81234893     -1.31392411
    C     -1.24274957      0.27222117     -0.30146540
    C      0.00000000      0.00000000      0.55897996
    C      1.24274957     -0.27222117     -0.30146540
    C      1.59246451      0.81234893     -1.31392411
    C      0.23390330      1.21569850      1.45524199
    C     -0.23390330     -1.21569850      1.45524199
    H     -1.76690337     -1.77267798     -0.83124567
    H     -2.49928983     -0.54991423     -1.85714011
    H     -0.79850705     -0.94654147     -2.04736528
    H     -2.08883275      0.42105931      0.37547868
    H     -1.10643896      1.22143957     -0.82475853
    H      2.08883275     -0.42105931      0.37547868
    H      1.10643896     -1.22143957     -0.82475853
    H      1.76690337      1.77267798     -0.83124567
    H      2.49928983      0.54991423     -1.85714011
    H      0.79850705      0.94654147     -2.04736528
    H      0.34826177      2.12957341      0.87282935
    H     -0.61185885      1.35753692      2.13001861
    H      1.13091422      1.08372669      2.06284049
    H     -0.34826177     -2.12957341      0.87282935
    H      0.61185885     -1.35753692      2.13001861
    H     -1.13091422     -1.08372669      2.06284049
 
 
 
