#p b3lyp 6-311+g(3df,2p) scf=tight nosymm

h14

0    1
    C      2.41584573     -0.81138486     -0.30930541
    C      1.08745957     -0.96733787      0.42170162
    C      0.00000000      0.00000000     -0.05295303
    C      0.29400938      1.42543655      0.42170162
    C     -0.50524297      2.49787620     -0.30930541
    C     -1.38146895     -0.45809868      0.42170162
    C     -1.91060276     -1.68649134     -0.30930541
    H      2.83224442      0.18733633     -0.18970264
    H      3.15466636     -1.52029266      0.06164864
    H      2.28737963     -0.99184091     -1.37667442
    H      1.23143001     -0.82047621      1.49645037
    H      0.74205731     -1.99460762      0.29701705
    H      0.00000000      0.00000000     -1.15045264
    H      1.35635221      1.63994429      0.29701705
    H      0.09483824      1.47668777      1.49645037
    H     -0.28473039      2.47684932     -1.37667442
    H     -0.26072111      3.49216754      0.06164864
    H     -1.57836023      2.35912745     -0.18970264
    H     -1.32626824     -0.65621156      1.49645037
    H     -2.09840952      0.35466332      0.29701705
    H     -1.25388419     -2.54646378     -0.18970264
    H     -2.89394525     -1.97187488      0.06164864
    H     -2.00264924     -1.48500841     -1.37667442
 
 
 
