#p b3lyp 6-311+g(3df,2p) scf=tight nosymm

h15

0    1
    C      1.14537561     -0.85249569     -1.33714398
    C      0.00000000      0.00000000     -0.78247263
    C      0.00000000      0.00000000      0.78247263
    C      1.14537561      0.85249569      1.33714398
    C      0.16559512      1.41817222     -1.33714398
    C     -1.31097073     -0.56567653     -1.33714398
    C      0.16559512     -1.41817222      1.33714398
    C     -1.31097073      0.56567653      1.33714398
    H      2.11012117     -0.56140063     -0.92194230
    H      0.99286529     -1.91233150     -1.13794621
    H      1.20109629     -0.72494494     -2.41932771
    H      2.11012117      0.56140063      0.92194230
    H      0.99286529      1.91233150      1.13794621
    H      1.20109629      0.72494494      2.41932771
    H      1.15969501      1.81601231     -1.13794621
    H      0.02727259      1.40265237     -2.41932771
    H     -0.56887337      2.10811885     -0.92194230
    H     -1.54124779     -1.54671822     -0.92194230
    H     -2.15256030      0.09631918     -1.13794621
    H     -1.22836887     -0.67770743     -2.41932771
    H      1.15969501     -1.81601231      1.13794621
    H      0.02727259     -1.40265237      2.41932771
    H     -0.56887337     -2.10811885      0.92194230
    H     -1.54124779      1.54671822      0.92194230
    H     -2.15256030     -0.09631918      1.13794621
    H     -1.22836887      0.67770743      2.41932771
 
 
 
