#p b3lyp 6-311+g(3df,2p) scf=tight nosymm

h5

0    1
    C     -3.14883743     -0.56307812      0.00000000
    C     -1.92284741      0.34058976      0.00000000
    C     -0.61791521     -0.44460059      0.00000000
    C      0.61791521      0.44460059      0.00000000
    C      1.92284741     -0.34058976      0.00000000
    C      3.14883743      0.56307812      0.00000000
    H     -3.15497427     -1.20649902      0.87968793
    H     -4.07346516      0.01196307      0.00000000
    H     -3.15497427     -1.20649902     -0.87968793
    H     -1.94653626      0.99468694      0.87451690
    H     -1.94653626      0.99468694     -0.87451690
    H     -0.59194743     -1.10006185      0.87536571
    H     -0.59194743     -1.10006185     -0.87536571
    H      0.59194743      1.10006185      0.87536571
    H      0.59194743      1.10006185     -0.87536571
    H      1.94653626     -0.99468694      0.87451690
    H      1.94653626     -0.99468694     -0.87451690
    H      3.15497427      1.20649902      0.87968793
    H      4.07346516     -0.01196307      0.00000000
    H      3.15497427      1.20649902     -0.87968793
 
 
 
