#p b3lyp 6-311+g(3df,2p) scf=tight nosymm

r1

0    1
    C     -0.58836793     -0.48620137     -1.02338797
    C     -1.20484216     -0.26405300      0.36026041
    C      0.58836793      0.48620137     -1.02338797
    C      1.20484216      0.26405300      0.36026041
    C      0.00000000      0.00000000      1.29364272
    H     -1.29367843     -0.32014662     -1.83622290
    H     -0.21314638     -1.50857981     -1.10818310
    H     -1.84873243      0.61539445      0.32627122
    H     -1.81692700     -1.10042750      0.69245795
    H      0.21314638      1.50857981     -1.10818310
    H      1.29367843      0.32014662     -1.83622290
    H      1.84873243     -0.61539445      0.32627122
    H      1.81692700      1.10042750      0.69245795
    H      0.19197378     -0.85297771      1.94198304
    H     -0.19197378      0.85297771      1.94198304
 
 
 
