#p b3lyp 6-311+g(3df,2p) scf=tight nosymm

r10

0    1
    C      0.32724386      0.19995516      0.28334510
    C      1.68404216      0.88632382      0.47348404
    C     -0.53227704      1.38935052     -0.17096123
    C     -0.17280432     -0.44343750      1.57377128
    C      0.42244812     -0.86939606     -0.81311697
    C     -0.88598551     -1.63131008     -1.01115444
    C     -1.36075449     -2.24986072      0.29994936
    C     -1.49312029     -1.18580748      1.38528290
    C      1.81970814      1.84703672     -0.71805290
    C      0.36564601      2.18114437     -1.13662853
    H      2.50398186      0.16971509      0.54344046
    H      1.65854677      1.45106406      1.40954847
    H     -1.47898537      1.09953325     -0.62494780
    H     -0.76631458      1.99727806      0.70739013
    H     -0.27115890      0.32809608      2.34249779
    H      0.58320313     -1.15216778      1.92968173
    H      0.74230965     -0.41798377     -1.75501070
    H      1.20376874     -1.58129552     -0.52543027
    H     -0.75169329     -2.40496313     -1.76909219
    H     -1.65613347     -0.95522739     -1.39072493
    H     -2.30942655     -2.76897783      0.15505969
    H     -0.63320405     -3.00015920      0.62452094
    H     -2.27572723     -0.47607294      1.10444882
    H     -1.80445726     -1.64110855      2.32687945
    H      2.38508475      2.73859364     -0.45330410
    H      2.35276773      1.36734310     -1.53761093
    H      0.15954550      3.24886275     -1.08766198
    H      0.18374595      1.87347133     -2.16560320
 
 
 
