#p b3lyp 6-311+g(3df,2p) scf=tight nosymm

r15

0    1
    C      0.57563325      0.50768609      0.48442533
    C      2.65314112      1.39910822     -0.62890015
    C      1.24713732      2.92211337      0.78981303
    C      0.08212433      1.94332836      0.66778796
    C      2.16473169      2.82976127     -0.42530891
    C      1.47707036      0.43214173     -0.74866723
    C     -0.57563325     -0.50768609      0.48442533
    C     -0.08212433     -1.94332836      0.66778796
    C     -1.24713732     -2.92211337      0.78981303
    C     -2.16473169     -2.82976127     -0.42530891
    C     -2.65314112     -1.39910822     -0.62890015
    C     -1.47707036     -0.43214173     -0.74866723
    H      1.19976384      0.27041116      1.35692032
    H      3.28482568      1.33639919     -1.51654328
    H      3.27300552      1.10602017      0.22361460
    H      1.82050002      2.68508514      1.69088278
    H      0.87543264      3.94112056      0.90947615
    H     -0.53236412      2.22979215     -0.19081790
    H     -0.55820416      2.00178367      1.55148613
    H      1.61300240      3.14816450     -1.31491019
    H      3.01101927      3.50987019     -0.31652432
    H      1.84312170     -0.58549023     -0.89555369
    H      0.89544840      0.69484174     -1.63718062
    H     -1.19976384     -0.27041116      1.35692032
    H      0.53236412     -2.22979215     -0.19081790
    H      0.55820416     -2.00178367      1.55148613
    H     -1.82050002     -2.68508514      1.69088278
    H     -0.87543264     -3.94112056      0.90947615
    H     -1.61300240     -3.14816450     -1.31491019
    H     -3.01101927     -3.50987019     -0.31652432
    H     -3.27300552     -1.10602017      0.22361460
    H     -3.28482568     -1.33639919     -1.51654328
    H     -1.84312170      0.58549023     -0.89555369
    H     -0.89544840     -0.69484174     -1.63718062
 
 
 
