#p b3lyp 6-311+g(3df,2p) scf=tight nosymm

r2

0    1
    C      1.25758987      0.72606985      0.23496542
    C     -1.25758987      0.72606985      0.23496542
    C      0.00000000     -1.45213970      0.23496542
    C      1.25758987     -0.72606985     -0.23496542
    C     -1.25758987     -0.72606985     -0.23496542
    C      0.00000000      1.45213970     -0.23496542
    H      2.15014895      1.24138908     -0.12285626
    H      1.29511057      0.74773244      1.32818128
    H     -2.15014895      1.24138908     -0.12285626
    H     -1.29511057      0.74773244      1.32818128
    H      0.00000000     -1.49546487      1.32818128
    H      0.00000000     -2.48277816     -0.12285626
    H      1.29511057     -0.74773244     -1.32818128
    H      2.15014895     -1.24138908      0.12285626
    H     -1.29511057     -0.74773244     -1.32818128
    H     -2.15014895     -1.24138908      0.12285626
    H      0.00000000      2.48277816      0.12285626
    H      0.00000000      1.49546487     -1.32818128
 
 
 
