#p b3lyp 6-311+g(3df,2p) scf=tight nosymm

r4

0    1
    C     -0.57426099      0.84684615      0.00000000
    C      0.09234449      0.27767704      1.25027622
    C      0.07976492     -1.24803061      1.25593203
    C      0.74503388     -1.80269780      0.00000000
    C      0.07976492     -1.24803061     -1.25593203
    C      0.09234449      0.27767704     -1.25027622
    C     -0.53774594      2.36821125      0.00000000
    H     -1.62082413      0.52050538      0.00000000
    H      1.12904409      0.63088002      1.28167359
    H     -0.40096186      0.66761705      2.14346919
    H     -0.95608711     -1.59754337      1.29644556
    H      0.57694571     -1.62793967      2.14974660
    H      1.80172240     -1.51914478      0.00000000
    H      0.70909530     -2.89310071      0.00000000
    H     -0.95608711     -1.59754337     -1.29644556
    H      0.57694571     -1.62793967     -2.14974660
    H     -0.40096186      0.66761705     -2.14346919
    H      1.12904409      0.63088002     -1.28167359
    H      0.49515222      2.72077724      0.00000000
    H     -1.03013660      2.77664118     -0.88272396
    H     -1.03013660      2.77664118      0.88272396
 
 
 
