#p b3lyp 6-311+g(3df,2p) scf=tight nosymm

r7

0    1
    C     -0.83900065     -0.55475782      0.12422265
    C      0.10642158     -1.70800845     -0.22089270
    C     -0.27550917      0.57142181     -0.75711768
    C      1.24720632      0.43425599     -0.58725270
    C      1.50329409     -1.05774428     -0.26813270
    C     -0.79722371     -0.22697064      1.61276426
    C     -0.80064339      1.96819209     -0.47222346
    H     -1.86806190     -0.78709899     -0.15874267
    H      0.04748563     -2.53310194      0.48911698
    H     -0.15198457     -2.10149765     -1.20552928
    H     -0.52455589      0.31099912     -1.79061176
    H      1.77860624      0.76806348     -1.47747451
    H      1.58239672      1.06791560      0.23531943
    H      2.14001896     -1.53477907     -1.01067381
    H      2.00669510     -1.16215842      0.69188669
    H      0.20819415      0.05001060      1.93217835
    H     -1.10308089     -1.09301859      2.19961323
    H     -1.46447093      0.59649413      1.86325404
    H     -0.52714862      2.29048225      0.53225657
    H     -1.88698562      2.01165566     -0.55809414
    H     -0.38165345      2.68964512     -1.17386679
 
 
 
