#p b3lyp 6-311+g(3df,2p) scf=tight nosymm

r8

0    1
    C     -0.72439286     -0.24625528     -0.29473863
    C     -0.85467750     -0.88227777      1.09097228
    C      0.72439286      0.24625528     -0.29473863
    C      0.85467750      0.88227777      1.09097228
    C      0.00000000      0.00000000      2.02772486
    C     -1.07925162     -1.18339230     -1.43493941
    C      1.07925162      1.18339230     -1.43493941
    H     -1.36840569      0.64066004     -0.33784938
    H     -1.89028040     -0.97065368      1.41747271
    H     -0.44341321     -1.89345325      1.04542591
    H      1.36840569     -0.64066004     -0.33784938
    H      1.89028040      0.97065368      1.41747271
    H      0.44341321      1.89345325      1.04542591
    H      0.62452764     -0.61188557      2.67618679
    H     -0.62452764      0.61188557      2.67618679
    H     -0.41923098     -2.05273752     -1.42460584
    H     -0.98044351     -0.69607470     -2.40454930
    H     -2.10481320     -1.54216969     -1.34723755
    H      0.41923098      2.05273752     -1.42460584
    H      0.98044351      0.69607470     -2.40454930
    H      2.10481320      1.54216969     -1.34723755
 
 
 
