#p b3lyp 6-311+g(3df,2p) scf=tight nosymm

00r

0    1
    C      0.66348219      0.00000000      0.00000000
    H      1.23462398     -0.92253576      0.00000000
    H      1.23462398      0.92253576      0.00000000
    C     -0.66348219      0.00000000      0.00000000
    H     -1.23462398     -0.92253576      0.00000000
    H     -1.23462398      0.92253576      0.00000000
 
 
 
