#p b3lyp 6-311+g(3df,2p) scf=tight nosymm

02r

0    1
    C      0.00000000      0.00000000     -1.12416991
    C      0.00000000      1.17942675     -0.18959510
    C      0.00000000     -1.17942675     -0.18959510
    C      0.00000000      0.73434647      1.08066230
    C      0.00000000     -0.73434647      1.08066230
    H      0.87715873      0.00000000     -1.78568415
    H     -0.87715873      0.00000000     -1.78568415
    H      0.00000000      2.21027959     -0.51635497
    H      0.00000000     -2.21027959     -0.51635497
    H      0.00000000      1.34728613      1.97305687
    H      0.00000000     -1.34728613      1.97305687
 
 
 
