#p b3lyp 6-311+g(3df,2p) scf=tight nosymm

03r

0    1
   Si      0.00000000      0.00000000     -1.37623845
    C      0.00000000     -1.35357738     -0.07601308
    C      0.00000000      1.35357738     -0.07601308
    C      0.00000000     -0.74316821      1.12396726
    C      0.00000000      0.74316821      1.12396726
    H     -1.20433713      0.00000000     -2.24936336
    H      1.20433713      0.00000000     -2.24936336
    H      0.00000000     -2.43103669     -0.18113111
    H      0.00000000      2.43103669     -0.18113111
    H      0.00000000     -1.27765036      2.07065952
    H      0.00000000      1.27765036      2.07065952
 
 
 
