#p b3lyp 6-311+g(3df,2p) scf=tight nosymm

04r

0    1
    C     -0.71731120      0.00000000      0.73536423
    C     -1.09398689      0.00000000     -0.56903169
    O      0.00000000      0.00000000     -1.38121424
    C      1.09398689      0.00000000     -0.56903169
    C      0.71731120      0.00000000      0.73536423
    H     -1.37199235      0.00000000      1.59213926
    H     -2.04808576      0.00000000     -1.06786468
    H      2.04808576      0.00000000     -1.06786468
    H      1.37199235      0.00000000      1.59213926
 
 
 
