#p b3lyp 6-311+g(3df,2p) scf=tight nosymm

04ts

0    1
    C     -0.59405997     -0.60847783     -1.07529447
    O     -0.50384894     -1.45637557      0.00000000
    C      1.35146958      0.16645665     -0.70127343
    C     -1.37353549      0.51339583     -0.68733081
    C     -0.59405997     -0.60847783      1.07529447
    C      1.35146958      0.16645665      0.70127343
    C     -1.37353549      0.51339583      0.68733081
    H     -0.56514030     -1.09111481     -2.04111220
    H      1.86271291     -0.63406374     -1.22416680
    H      1.31884012      1.10510765     -1.24090996
    H     -1.74836237      1.27688403     -1.35217963
    H     -0.56514030     -1.09111481      2.04111220
    H      1.86271291     -0.63406374      1.22416680
    H      1.31884012      1.10510765      1.24090996
    H     -1.74836237      1.27688403      1.35217963
 
 
 
