#p b3lyp 6-311+g(3df,2p) scf=tight nosymm

09r

0    1
    C     -0.71355470      0.00000000     -0.69976624
    C     -1.24098496      0.00000000      0.55889443
    S      0.00000000      0.00000000      1.76913499
    C      1.24098496      0.00000000      0.55889443
    C      0.71355470      0.00000000     -0.69976624
    H     -1.31813550      0.00000000     -1.59705970
    H     -2.27881940      0.00000000      0.85336402
    H      2.27881940      0.00000000      0.85336402
    H      1.31813550      0.00000000     -1.59705970
 
 
 
