#p b3lyp 6-311+g(3df,2p) scf=tight nosymm

09ts

0    1
    C      0.82811617     -0.21159069      1.20475228
    S      1.44229834     -1.34965551      0.00000000
    C     -1.24908459     -0.55021650      0.70215920
    C      0.92063189      1.10965989      0.68648123
    C      0.82811617     -0.21159069     -1.20475228
    C     -1.24908459     -0.55021650     -0.70215920
    C      0.92063189      1.10965989     -0.68648123
    H      0.95673688     -0.45976412      2.25014884
    H     -1.31253023     -1.49358792      1.23028597
    H     -1.67759030      0.29044161      1.23347837
    H      0.81257101      1.98988549      1.30728656
    H      0.95673688     -0.45976412     -2.25014884
    H     -1.31253023     -1.49358792     -1.23028597
    H     -1.67759030      0.29044161     -1.23347837
    H      0.81257101      1.98988549     -1.30728656
 
 
 
