#p b3lyp 6-311+g(3df,2p) scf=tight nosymm

13r_9

0    1
    N      0.00000000      0.00000000     -0.36875514
    H      0.00000000      0.00000000     -1.38378706
    C      1.22577441      0.00000000      0.15784006
    H      1.33931519      0.00000000      1.22986726
    H      2.06809411      0.00000000     -0.51143623
    C     -1.22577441      0.00000000      0.15784006
    H     -1.33931519      0.00000000      1.22986726
    H     -2.06809411      0.00000000     -0.51143623
 
 
 
