#p b3lyp 6-311+g(3df,2p) scf=tight nosymm

13r_3

0    1
    N      0.00000000      0.00000000      1.88832497
    N      0.00000000      0.00000000      0.75165548
    C      0.00000000      0.00000000     -0.54332277
    H      0.95203693      0.00000000     -1.04832884
    H     -0.95203693      0.00000000     -1.04832884
 
 
 
