#p b3lyp 6-311+g(3df,2p) scf=tight nosymm

Ethylene

0    1
    C      0.00000000      0.66552419      0.00000000
    C      0.00000000     -0.66552419      0.00000000
    H      0.92355826      1.23945335      0.00000000
    H     -0.92355826      1.23945335      0.00000000
    H      0.92355826     -1.23945335      0.00000000
    H     -0.92355826     -1.23945335      0.00000000
 
 
 
