#p b3lyp 6-311+g(3df,2p) scf=tight nosymm

Norbornene

0    1
    C      0.22154406      0.24994207      1.12850432
    C      1.13201032      0.79159722      0.00000000
    H      1.20734534      1.88354853      0.00000000
    C      0.22154406      0.24994207     -1.12850432
    H      2.13749961      0.35176610      0.00000000
    C     -1.12576232      0.79200122     -0.67029819
    H      0.51054214      0.47730514     -2.15774861
    H      1.12228632     -1.76173850      1.17774933
    H     -1.96078056      1.01216929     -1.32872638
    C     -1.12576232      0.79200122      0.67029819
    H      1.12228632     -1.76173850     -1.17774933
    C      0.22154406     -1.27949536     -0.78053422
    H     -0.64446218     -1.79486951      1.20660934
    H      0.51054214      0.47730514      2.15774861
    H     -1.96078056      1.01216929      1.32872638
    H     -0.64446218     -1.79486951     -1.20660934
    C      0.22154406     -1.27949536      0.78053422
 
 
 
