#p b3lyp 6-311+g(3df,2p) scf=tight nosymm

TS6

0    1
    C     -0.00315500     -0.25986407      1.43110341
    C      0.00259100      0.26001007     -1.43110541
    C     -1.22042435      0.25489807      0.94647027
    C      1.22051535     -0.25352607     -0.94684127
    C      1.21678034      0.25345407      0.95179627
    C     -1.21658434     -0.25497607     -0.95160327
    H     -2.14815661     -0.18926505      1.30691937
    H      2.14754361      0.19304405     -1.30608237
    H     -1.30037437      1.33198138      0.81006323
    H      1.30240337     -1.33062438     -0.81183223
    H      1.29958537      1.33050938      0.81703023
    H     -1.29691837     -1.33208138     -0.81564023
    H      2.14222561     -0.19342405      1.31472437
    H     -2.14294661      0.18915305     -1.31559537
    H     -0.00456600     -1.27756136      1.82293552
    H      0.00285600      1.27829136     -1.82144852
 
 
 
