#p b3lyp 6-311+g(3df,2p) scf=tight nosymm

TS8

0    1
    H     -1.54363444     -1.57411545     -1.32881838
    C     -0.74423821     -1.18991934     -0.70291120
    H      2.00246157      0.48063314      0.00000000
    C      0.35844710     -0.46033313     -1.15742733
    C     -0.74423821     -1.18991934      0.70291120
    H      1.94211955     -1.29313937      0.00000000
    C      1.32638538     -0.37684611      0.00000000
    C     -0.33211209      1.62912946     -0.69397020
    H      0.67184619     -0.40723212     -2.19544462
    C     -0.33211209      1.62912946      0.69397020
    H     -1.54363444     -1.57411545      1.32881838
    C      0.35844710     -0.46033313      1.15742733
    H      0.67184619     -0.40723212      2.19544462
    H      0.49242014      2.07738859      1.24117335
    H     -1.26466236      1.56748444     -1.24394035
    H      0.49242014      2.07738859     -1.24117335
    H     -1.26466236      1.56748444      1.24394035
 
 
 
