%nproc=8
%mem=7GB
%chk=bz_methane.chk
#P BLYP/6-311+g(3df,2p) iop(3/76=0350006500,3/78=0640006400) iop(5/33=1) scf=tight 
extraoverlay

8/10=90/1;9/16=-1/6;

Estimated CCSD(T)/aug-cc-pVQZ* Level of Theory using Frozen Monomers 

0 1
C	 1.405731  	 0.000000 	 r 
C	 0.702865 	-1.217399 	 r 
C	-0.702865 	-1.217399 	 r 
C	-1.405731 	 0.000000 	 r 
C	-0.702865 	 1.217399 	 r 
C	 0.702865 	 1.217399 	 r 
C	 0.000000 	 0.000000 	-3.800000 
H	 2.500941 	 0.000000 	 r 
H	 1.250470 	-2.165878 	 r 
H	-1.250470 	-2.165878 	 r 
H	-2.500941 	 0.000000 	 r 
H	-1.250470 	 2.165878 	 r 
H	 1.250470 	 2.165878 	 r
H	 0.000000 	 0.000000 	-2.700497 
H	 1.036621 	 0.000000 	-4.166500 
H	-0.518311 	 0.897740 	-4.166500 
H	-0.518311 	-0.897740 	-4.166500 

r = 2.2

--link1--
%nproc=8
%mem=7GB
%chk=bz_methane.chk
#P BLYP/6-311+g(3df,2p) iop(3/76=0350006500,3/78=0640006400) iop(5/33=1) scf=tight guess=read
extraoverlay

8/10=90/1;9/16=-1/6;

Estimated CCSD(T)/aug-cc-pVQZ* Level of Theory using Frozen Monomers

0 1
C        1.405731        0.000000        r       
C        0.702865       -1.217399        r       
C       -0.702865       -1.217399        r       
C       -1.405731        0.000000        r       
C       -0.702865        1.217399        r       
C        0.702865        1.217399        r       
C        0.000000        0.000000       -3.800000
H        2.500941        0.000000        r       
H        1.250470       -2.165878        r       
H       -1.250470       -2.165878        r       
H       -2.500941        0.000000        r       
H       -1.250470        2.165878        r       
H        1.250470        2.165878        r
H        0.000000        0.000000       -2.700497
H        1.036621        0.000000       -4.166500
H       -0.518311        0.897740       -4.166500
H       -0.518311       -0.897740       -4.166500

r = 1.8

--link1--
%nproc=8
%mem=7GB
%chk=bz_methane.chk
#P BLYP/6-311+g(3df,2p) iop(3/76=0350006500,3/78=0640006400) iop(5/33=1) scf=tight guess=read
extraoverlay

8/10=90/1;9/16=-1/6;

Estimated CCSD(T)/aug-cc-pVQZ* Level of Theory using Frozen Monomers

0 1
C        1.405731        0.000000        r       
C        0.702865       -1.217399        r       
C       -0.702865       -1.217399        r       
C       -1.405731        0.000000        r       
C       -0.702865        1.217399        r       
C        0.702865        1.217399        r       
C        0.000000        0.000000       -3.800000
H        2.500941        0.000000        r       
H        1.250470       -2.165878        r       
H       -1.250470       -2.165878        r       
H       -2.500941        0.000000        r       
H       -1.250470        2.165878        r       
H        1.250470        2.165878        r
H        0.000000        0.000000       -2.700497
H        1.036621        0.000000       -4.166500
H       -0.518311        0.897740       -4.166500
H       -0.518311       -0.897740       -4.166500

r = 1.6

--link1--
%nproc=8
%mem=7GB
%chk=bz_methane.chk
#P BLYP/6-311+g(3df,2p) iop(3/76=0350006500,3/78=0640006400) iop(5/33=1) scf=tight guess=read
extraoverlay

8/10=90/1;9/16=-1/6;

Estimated CCSD(T)/aug-cc-pVQZ* Level of Theory using Frozen Monomers

0 1
C        1.405731        0.000000        r       
C        0.702865       -1.217399        r       
C       -0.702865       -1.217399        r       
C       -1.405731        0.000000        r       
C       -0.702865        1.217399        r       
C        0.702865        1.217399        r       
C        0.000000        0.000000       -3.800000
H        2.500941        0.000000        r       
H        1.250470       -2.165878        r       
H       -1.250470       -2.165878        r       
H       -2.500941        0.000000        r       
H       -1.250470        2.165878        r       
H        1.250470        2.165878        r
H        0.000000        0.000000       -2.700497
H        1.036621        0.000000       -4.166500
H       -0.518311        0.897740       -4.166500
H       -0.518311       -0.897740       -4.166500

r = 1.4

--link1--
%nproc=8
%mem=7GB
%chk=bz_methane.chk
#P BLYP/6-311+g(3df,2p) iop(3/76=0350006500,3/78=0640006400) iop(5/33=1) scf=tight guess=read
extraoverlay

8/10=90/1;9/16=-1/6;

Estimated CCSD(T)/aug-cc-pVQZ* Level of Theory using Frozen Monomers

0 1
C        1.405731        0.000000        r       
C        0.702865       -1.217399        r       
C       -0.702865       -1.217399        r       
C       -1.405731        0.000000        r       
C       -0.702865        1.217399        r       
C        0.702865        1.217399        r       
C        0.000000        0.000000       -3.800000
H        2.500941        0.000000        r       
H        1.250470       -2.165878        r       
H       -1.250470       -2.165878        r       
H       -2.500941        0.000000        r       
H       -1.250470        2.165878        r       
H        1.250470        2.165878        r
H        0.000000        0.000000       -2.700497
H        1.036621        0.000000       -4.166500
H       -0.518311        0.897740       -4.166500
H       -0.518311       -0.897740       -4.166500

r = 1.2

--link1--
%nproc=8
%mem=7GB
%chk=bz_methane.chk
#P BLYP/6-311+g(3df,2p) iop(3/76=0350006500,3/78=0640006400) iop(5/33=1) scf=tight guess=read
extraoverlay

8/10=90/1;9/16=-1/6;

Estimated CCSD(T)/aug-cc-pVQZ* Level of Theory using Frozen Monomers

0 1
C        1.405731        0.000000        r       
C        0.702865       -1.217399        r       
C       -0.702865       -1.217399        r       
C       -1.405731        0.000000        r       
C       -0.702865        1.217399        r       
C        0.702865        1.217399        r       
C        0.000000        0.000000       -3.800000
H        2.500941        0.000000        r       
H        1.250470       -2.165878        r       
H       -1.250470       -2.165878        r       
H       -2.500941        0.000000        r       
H       -1.250470        2.165878        r       
H        1.250470        2.165878        r
H        0.000000        0.000000       -2.700497
H        1.036621        0.000000       -4.166500
H       -0.518311        0.897740       -4.166500
H       -0.518311       -0.897740       -4.166500

r = 1.0

--link1--
%nproc=8
%mem=7GB
%chk=bz_methane.chk
#P BLYP/6-311+g(3df,2p) iop(3/76=0350006500,3/78=0640006400) iop(5/33=1) scf=tight guess=read
extraoverlay

8/10=90/1;9/16=-1/6;

Estimated CCSD(T)/aug-cc-pVQZ* Level of Theory using Frozen Monomers

0 1
C        1.405731        0.000000        r       
C        0.702865       -1.217399        r       
C       -0.702865       -1.217399        r       
C       -1.405731        0.000000        r       
C       -0.702865        1.217399        r       
C        0.702865        1.217399        r       
C        0.000000        0.000000       -3.800000
H        2.500941        0.000000        r       
H        1.250470       -2.165878        r       
H       -1.250470       -2.165878        r       
H       -2.500941        0.000000        r       
H       -1.250470        2.165878        r       
H        1.250470        2.165878        r
H        0.000000        0.000000       -2.700497
H        1.036621        0.000000       -4.166500
H       -0.518311        0.897740       -4.166500
H       -0.518311       -0.897740       -4.166500

r = 0.8

--link1--
%nproc=8
%mem=7GB
%chk=bz_methane.chk
#P BLYP/6-311+g(3df,2p) iop(3/76=0350006500,3/78=0640006400) iop(5/33=1) scf=tight guess=read
extraoverlay

8/10=90/1;9/16=-1/6;

Estimated CCSD(T)/aug-cc-pVQZ* Level of Theory using Frozen Monomers

0 1
C        1.405731        0.000000        r       
C        0.702865       -1.217399        r       
C       -0.702865       -1.217399        r       
C       -1.405731        0.000000        r       
C       -0.702865        1.217399        r       
C        0.702865        1.217399        r       
C        0.000000        0.000000       -3.800000
H        2.500941        0.000000        r       
H        1.250470       -2.165878        r       
H       -1.250470       -2.165878        r       
H       -2.500941        0.000000        r       
H       -1.250470        2.165878        r       
H        1.250470        2.165878        r
H        0.000000        0.000000       -2.700497
H        1.036621        0.000000       -4.166500
H       -0.518311        0.897740       -4.166500
H       -0.518311       -0.897740       -4.166500

r = 0.6

--link1--
%nproc=8
%mem=7GB
%chk=bz_methane.chk
#P BLYP/6-311+g(3df,2p) iop(3/76=0350006500,3/78=0640006400) iop(5/33=1) scf=tight guess=read
extraoverlay

8/10=90/1;9/16=-1/6;

Estimated CCSD(T)/aug-cc-pVQZ* Level of Theory using Frozen Monomers

0 1
C        1.405731        0.000000        r       
C        0.702865       -1.217399        r       
C       -0.702865       -1.217399        r       
C       -1.405731        0.000000        r       
C       -0.702865        1.217399        r       
C        0.702865        1.217399        r       
C        0.000000        0.000000       -3.800000
H        2.500941        0.000000        r       
H        1.250470       -2.165878        r       
H       -1.250470       -2.165878        r       
H       -2.500941        0.000000        r       
H       -1.250470        2.165878        r       
H        1.250470        2.165878        r
H        0.000000        0.000000       -2.700497
H        1.036621        0.000000       -4.166500
H       -0.518311        0.897740       -4.166500
H       -0.518311       -0.897740       -4.166500

r = 0.4

--link1--
%nproc=8
%mem=7GB
%chk=bz_methane.chk
#P BLYP/6-311+g(3df,2p) iop(3/76=0350006500,3/78=0640006400) iop(5/33=1) scf=tight guess=read
extraoverlay

8/10=90/1;9/16=-1/6;

Estimated CCSD(T)/aug-cc-pVQZ* Level of Theory using Frozen Monomers

0 1
C        1.405731        0.000000        r       
C        0.702865       -1.217399        r       
C       -0.702865       -1.217399        r       
C       -1.405731        0.000000        r       
C       -0.702865        1.217399        r       
C        0.702865        1.217399        r       
C        0.000000        0.000000       -3.800000
H        2.500941        0.000000        r       
H        1.250470       -2.165878        r       
H       -1.250470       -2.165878        r       
H       -2.500941        0.000000        r       
H       -1.250470        2.165878        r       
H        1.250470        2.165878        r
H        0.000000        0.000000       -2.700497
H        1.036621        0.000000       -4.166500
H       -0.518311        0.897740       -4.166500
H       -0.518311       -0.897740       -4.166500

r = 0.3

--link1--
%nproc=8
%mem=7GB
%chk=bz_methane.chk
#P BLYP/6-311+g(3df,2p) iop(3/76=0350006500,3/78=0640006400) iop(5/33=1) scf=tight guess=read
extraoverlay

8/10=90/1;9/16=-1/6;

Estimated CCSD(T)/aug-cc-pVQZ* Level of Theory using Frozen Monomers

0 1
C        1.405731        0.000000        r       
C        0.702865       -1.217399        r       
C       -0.702865       -1.217399        r       
C       -1.405731        0.000000        r       
C       -0.702865        1.217399        r       
C        0.702865        1.217399        r       
C        0.000000        0.000000       -3.800000
H        2.500941        0.000000        r       
H        1.250470       -2.165878        r       
H       -1.250470       -2.165878        r       
H       -2.500941        0.000000        r       
H       -1.250470        2.165878        r       
H        1.250470        2.165878        r
H        0.000000        0.000000       -2.700497
H        1.036621        0.000000       -4.166500
H       -0.518311        0.897740       -4.166500
H       -0.518311       -0.897740       -4.166500

r = 0.2

--link1--
%nproc=8
%mem=7GB
%chk=bz_methane.chk
#P BLYP/6-311+g(3df,2p) iop(3/76=0350006500,3/78=0640006400) iop(5/33=1) scf=tight guess=read
extraoverlay

8/10=90/1;9/16=-1/6;

Estimated CCSD(T)/aug-cc-pVQZ* Level of Theory using Frozen Monomers

0 1
C        1.405731        0.000000        r       
C        0.702865       -1.217399        r       
C       -0.702865       -1.217399        r       
C       -1.405731        0.000000        r       
C       -0.702865        1.217399        r       
C        0.702865        1.217399        r       
C        0.000000        0.000000       -3.800000
H        2.500941        0.000000        r       
H        1.250470       -2.165878        r       
H       -1.250470       -2.165878        r       
H       -2.500941        0.000000        r       
H       -1.250470        2.165878        r       
H        1.250470        2.165878        r
H        0.000000        0.000000       -2.700497
H        1.036621        0.000000       -4.166500
H       -0.518311        0.897740       -4.166500
H       -0.518311       -0.897740       -4.166500

r = 0.1

--link1--
%nproc=8
%mem=7GB
%chk=bz_methane.chk
#P BLYP/6-311+g(3df,2p) iop(3/76=0350006500,3/78=0640006400) iop(5/33=1) scf=tight guess=read
extraoverlay

8/10=90/1;9/16=-1/6;

Estimated CCSD(T)/aug-cc-pVQZ* Level of Theory using Frozen Monomers

0 1
C        1.405731        0.000000        r       
C        0.702865       -1.217399        r       
C       -0.702865       -1.217399        r       
C       -1.405731        0.000000        r       
C       -0.702865        1.217399        r       
C        0.702865        1.217399        r       
C        0.000000        0.000000       -3.800000
H        2.500941        0.000000        r       
H        1.250470       -2.165878        r       
H       -1.250470       -2.165878        r       
H       -2.500941        0.000000        r       
H       -1.250470        2.165878        r       
H        1.250470        2.165878        r
H        0.000000        0.000000       -2.700497
H        1.036621        0.000000       -4.166500
H       -0.518311        0.897740       -4.166500
H       -0.518311       -0.897740       -4.166500

r = 0.0

--link1--
%nproc=8
%mem=7GB
%chk=bz_methane.chk
#P BLYP/6-311+g(3df,2p) iop(3/76=0350006500,3/78=0640006400) iop(5/33=1) scf=tight guess=read
extraoverlay

8/10=90/1;9/16=-1/6;

Estimated CCSD(T)/aug-cc-pVQZ* Level of Theory using Frozen Monomers

0 1
C        1.405731        0.000000        r       
C        0.702865       -1.217399        r       
C       -0.702865       -1.217399        r       
C       -1.405731        0.000000        r       
C       -0.702865        1.217399        r       
C        0.702865        1.217399        r       
C        0.000000        0.000000       -3.800000
H        2.500941        0.000000        r       
H        1.250470       -2.165878        r       
H       -1.250470       -2.165878        r       
H       -2.500941        0.000000        r       
H       -1.250470        2.165878        r       
H        1.250470        2.165878        r
H        0.000000        0.000000       -2.700497
H        1.036621        0.000000       -4.166500
H       -0.518311        0.897740       -4.166500
H       -0.518311       -0.897740       -4.166500

r = -0.1

--link1--
%nproc=8
%mem=7GB
%chk=bz_methane.chk
#P BLYP/6-311+g(3df,2p) iop(3/76=0350006500,3/78=0640006400) iop(5/33=1) scf=tight guess=read
extraoverlay

8/10=90/1;9/16=-1/6;

Estimated CCSD(T)/aug-cc-pVQZ* Level of Theory using Frozen Monomers

0 1
C        1.405731        0.000000        r       
C        0.702865       -1.217399        r       
C       -0.702865       -1.217399        r       
C       -1.405731        0.000000        r       
C       -0.702865        1.217399        r       
C        0.702865        1.217399        r       
C        0.000000        0.000000       -3.800000
H        2.500941        0.000000        r       
H        1.250470       -2.165878        r       
H       -1.250470       -2.165878        r       
H       -2.500941        0.000000        r       
H       -1.250470        2.165878        r       
H        1.250470        2.165878        r
H        0.000000        0.000000       -2.700497
H        1.036621        0.000000       -4.166500
H       -0.518311        0.897740       -4.166500
H       -0.518311       -0.897740       -4.166500

r = -0.2

--link1--
%nproc=8
%mem=7GB
%chk=bz_methane.chk
#P BLYP/6-311+g(3df,2p) iop(3/76=0350006500,3/78=0640006400) iop(5/33=1) scf=tight guess=read
extraoverlay

8/10=90/1;9/16=-1/6;

Estimated CCSD(T)/aug-cc-pVQZ* Level of Theory using Frozen Monomers

0 1
C        1.405731        0.000000        r       
C        0.702865       -1.217399        r       
C       -0.702865       -1.217399        r       
C       -1.405731        0.000000        r       
C       -0.702865        1.217399        r       
C        0.702865        1.217399        r       
C        0.000000        0.000000       -3.800000
H        2.500941        0.000000        r       
H        1.250470       -2.165878        r       
H       -1.250470       -2.165878        r       
H       -2.500941        0.000000        r       
H       -1.250470        2.165878        r       
H        1.250470        2.165878        r
H        0.000000        0.000000       -2.700497
H        1.036621        0.000000       -4.166500
H       -0.518311        0.897740       -4.166500
H       -0.518311       -0.897740       -4.166500

r = -0.3

--link1--
%nproc=8
%mem=7GB
%chk=bz_methane.chk
#P BLYP/6-311+g(3df,2p) iop(3/76=0350006500,3/78=0640006400) iop(5/33=1) scf=tight guess=read
extraoverlay

8/10=90/1;9/16=-1/6;

Estimated CCSD(T)/aug-cc-pVQZ* Level of Theory using Frozen Monomers

0 1
C        1.405731        0.000000        r       
C        0.702865       -1.217399        r       
C       -0.702865       -1.217399        r       
C       -1.405731        0.000000        r       
C       -0.702865        1.217399        r       
C        0.702865        1.217399        r       
C        0.000000        0.000000       -3.800000
H        2.500941        0.000000        r       
H        1.250470       -2.165878        r       
H       -1.250470       -2.165878        r       
H       -2.500941        0.000000        r       
H       -1.250470        2.165878        r       
H        1.250470        2.165878        r
H        0.000000        0.000000       -2.700497
H        1.036621        0.000000       -4.166500
H       -0.518311        0.897740       -4.166500
H       -0.518311       -0.897740       -4.166500

r = -0.4

--link1--
%nproc=8
%mem=7GB
%chk=bz_methane.chk
#P BLYP/6-311+g(3df,2p) iop(3/76=0350006500,3/78=0640006400) iop(5/33=1) scf=tight guess=read
extraoverlay

8/10=90/1;9/16=-1/6;

Estimated CCSD(T)/aug-cc-pVQZ* Level of Theory using Frozen Monomers

0 1
C        1.405731        0.000000        r       
C        0.702865       -1.217399        r       
C       -0.702865       -1.217399        r       
C       -1.405731        0.000000        r       
C       -0.702865        1.217399        r       
C        0.702865        1.217399        r       
C        0.000000        0.000000       -3.800000
H        2.500941        0.000000        r       
H        1.250470       -2.165878        r       
H       -1.250470       -2.165878        r       
H       -2.500941        0.000000        r       
H       -1.250470        2.165878        r       
H        1.250470        2.165878        r
H        0.000000        0.000000       -2.700497
H        1.036621        0.000000       -4.166500
H       -0.518311        0.897740       -4.166500
H       -0.518311       -0.897740       -4.166500

r = -0.5

--link1--
%nproc=8
%mem=7GB
%chk=bz_methane.chk
#P BLYP/6-311+g(3df,2p) iop(3/76=0350006500,3/78=0640006400) iop(5/33=1) scf=tight guess=read
extraoverlay

8/10=90/1;9/16=-1/6;

Estimated CCSD(T)/aug-cc-pVQZ* Level of Theory using Frozen Monomers

0 1
C        1.405731        0.000000        r       
C        0.702865       -1.217399        r       
C       -0.702865       -1.217399        r       
C       -1.405731        0.000000        r       
C       -0.702865        1.217399        r       
C        0.702865        1.217399        r       
C        0.000000        0.000000       -3.800000
H        2.500941        0.000000        r       
H        1.250470       -2.165878        r       
H       -1.250470       -2.165878        r       
H       -2.500941        0.000000        r       
H       -1.250470        2.165878        r       
H        1.250470        2.165878        r
H        0.000000        0.000000       -2.700497
H        1.036621        0.000000       -4.166500
H       -0.518311        0.897740       -4.166500
H       -0.518311       -0.897740       -4.166500

r = -0.6


--link1--
%nproc=8
%mem=7GB
%chk=bz_methane.chk
#P BLYP/6-311+g(3df,2p) iop(3/76=0350006500,3/78=0640006400) iop(5/33=1) scf=tight guess=read
extraoverlay

8/10=90/1;9/16=-1/6;

Estimated CCSD(T)/aug-cc-pVQZ* Level of Theory using Frozen Monomers

0 1
C        1.405731        0.000000        r
C        0.702865       -1.217399        r
C       -0.702865       -1.217399        r
C       -1.405731        0.000000        r
C       -0.702865        1.217399        r
C        0.702865        1.217399        r
C        0.000000        0.000000       -3.800000
H        2.500941        0.000000        r
H        1.250470       -2.165878        r
H       -1.250470       -2.165878        r
H       -2.500941        0.000000        r
H       -1.250470        2.165878        r
H        1.250470        2.165878        r
H        0.000000        0.000000       -2.700497
H        1.036621        0.000000       -4.166500
H       -0.518311        0.897740       -4.166500
H       -0.518311       -0.897740       -4.166500

r = 16.2


