%nproc=8
#P TPSSTPSS/6-311+g(3df,2p) scf=tight iop(3/76=0500005000,5/33=1)

10; geometry from JPCA, 2005, 109, 2012-2018

0 3
C        0.000290   -1.142289    0.000000
H       -1.055957   -1.384735    0.000000
H        0.520167   -1.407389    0.912447
H        0.520167   -1.407389   -0.912447
H        0.011560    0.160099    0.000000
O        0.000290    1.361643    0.000000

 




