%nproc=8
#P TPSSTPSS/6-311+g(3df,2p) scf=tight iop(3/76=0500005000,5/33=1)

11; geometry from JPCA, 2005, 109, 2012-2018

0 2
P         .217429     .000088    -.111249
H         .246609    1.034668     .852164
H         .262661   -1.025058     .861623
H       -1.266418    -.010952    -.150626
H       -2.504290     .000028     .105575




