%nproc=8
#P TPSSTPSS/6-311+g(3df,2p) scf=tight iop(3/76=0500005000,5/33=1)
extraoverlay

8/10=90/1;9/16=-3/6;
3/5=4,6=6,7=216,11=2,16=1,25=1,30=1,74=203/1,2,3;
5/5=2,6=-2,32=1,33=1,38=5/2;

16; geometry from JPCA, 2005, 109, 2012-2018

0 3
C       -1.394984   -0.449661    0.000703
C       -0.435746    0.714063    0.002027
N        1.927570   -0.378352    0.003036
H       -1.200087   -1.120951   -0.835687
H       -1.322095   -1.027884    0.921773
H       -2.428713   -0.105352   -0.089334
H       -0.417688    1.308482   -0.907201
H       -0.441127    1.329095    0.897467
H        0.828501    0.180593   -0.028561
H        2.472592    0.498073    0.003910


 



