%nproc=8
#P TPSSTPSS/6-311+g(3df,2p) scf=tight iop(3/76=0500005000,5/33=1)
extraoverlay

8/10=90/1;9/16=-3/6;
3/5=4,6=6,7=216,11=2,16=1,25=1,30=1,74=203/1,2,3;
5/5=2,6=-2,32=1,33=1,38=5/2;

18; geometry from JPCA, 2005, 109, 2012-2018

0 2
C       -1.260750   -0.000006    0.012291
N        1.313255   -0.000005   -0.136782
H       -1.583987    0.908538   -0.484744
H       -1.463672   -0.004573    1.077302
H       -1.584748   -0.903880   -0.492700
H        0.043108   -0.000064   -0.151692
H        1.480459    0.805577    0.467751
H        1.480557   -0.805524    0.467808
 



