%nproc=8
%mem=6000MB
#P B3LYP/6-31G scf=tight nosymm polar=dipole

B3LYP-ANS
Geom@mp2/6-31G

0 1
6   10.29545683   -0.05887449   0.00000000
6   9.66928338   -1.33315596   0.00000000
6   8.26794337   -1.43714128   0.00000000
6   7.43112963   -0.28814081   0.00000000
6   8.06917783   0.98388759   0.00000000
6   9.46801548   1.09889776   0.00000000
7   11.68641352   0.05887537   0.00000000
1   10.28249940   -2.23825109   0.00000000
1   7.81079161   -2.43052917   0.00000000
6   5.96700116   -0.47146427   0.00000000
1   7.47500292   1.90005051   0.00000000
1   9.92983577   2.09007485   0.00000000
1   12.13280429   0.96298594   0.00000000
1   12.27804383   -0.75762568   0.00000000
6   5.01832609   0.51052454   0.00000000
1   5.64286224   -1.51885530   0.00000000
1   5.33948198   1.55793425   0.00000000
6   3.55345815   0.31603538   0.00000000
6   2.71083938   1.46163267   0.00000000
6   1.30749361   1.35286400   0.00000000
6   0.74028765   0.06735373   0.00000000
6   1.53032619   -1.09792038   0.00000000
6   2.93002685   -0.96376470   0.00000000
1   3.53534148   -1.87124719   0.00000000
1   1.05643170   -2.07774566   0.00000000
1   3.16320587   2.45624531   0.00000000
1   0.66914210   2.23431624   0.00000000
7   -0.74028629   -0.06735334   0.00000000
8   -1.44755287   1.00505565   0.00000000
8   -1.24271548   -1.24971219   0.00000000


