%nproc=8
%mem=6000MB
#P B3LYP/6-31G scf=tight nosymm polar=dipole

B3LYP-C2H2_5
Geom@mp2/6-31G

0 1
6   6.80343760   0.11008528   0.00004368
1   6.80070133   1.20797095   0.00091483
6   5.59609845   -0.54551247   -0.00040947
1   5.58712064   -1.64218425   -0.00126897
6   4.31263927   0.13330604   0.00011565
1   4.33122355   1.23035389   0.00102561
6   3.09620335   -0.50009172   -0.00045699
1   3.06252361   -1.59529660   -0.00135710
6   1.83189213   0.22106697   0.00010406
1   1.85988103   1.31401132   0.00088048
6   0.62263886   -0.38745782   -0.00049899
1   0.43912502   -1.45907827   -0.00099768
7   -0.62263886   0.38745782   0.00049899
8   -0.57604284   1.67092197   -0.00119563
8   -1.71482334   -0.29556293   0.00287236
6   8.10021189   -0.54159165   -0.00045219
1   8.11307708   -1.63821263   -0.00142392
6   9.29420736   0.13782907   -0.00013929
1   9.26391285   1.23576708   0.00079941
6   10.60911580   -0.47787551   -0.00058518
1   10.66516422   -1.57208292   -0.00160933
6   11.76699764   0.25578230   0.00015075
1   11.71693126   1.34737149   0.00128257
7   13.05721360   -0.25578230   -0.00015075
1   13.85974251   0.35207666   0.00128115
1   13.22367864   -1.25146354   -0.00128511

