%nproc=8
%mem=6000MB
#P B3LYP/6-31G scf=tight nosymm polar=dipole

B3LYP-C2H2_7
Geom@mp2/6-31G

0 1
6   6.80550369   -0.08319957   0.00004634
1   6.81573095   -1.18051232   0.00000000
6   5.59243574   0.56239407   0.00006148
1   5.57530059   1.65906902   0.00011140
6   4.31332516   -0.12525478   0.00001931
1   4.33759907   -1.22190619   -0.00003457
6   3.09510123   0.50420698   0.00004343
1   3.05826513   1.59934294   0.00009426
6   1.83185243   -0.22026026  0.0000000
1   1.86137391   -1.31305449   -0.00003152
6   0.62285587   0.38791168   0.00004151
1   0.43885912   1.45951464   0.00004262
7   -0.62285587   -0.38791168   -0.00004151
8   -0.57496012   -1.67104246   0.00015973
8   -1.71468335   0.29524224   -0.00036177
6   8.09205387   0.58717282   0.00008654
1   8.08756376   1.68424198   0.00014452
6   9.30006626   -0.07009464   0.00007137
1   9.29896370   -1.16767675   0.0000000
6   10.59348653   0.58647580   0.00010861
1   10.60000516   1.68361900   0.00019265
6   11.79518051   -0.08221487   0.00005241
1   11.78149288   -1.18007261   -0.00003265
6   13.09782402   0.55785523   0.00008170
1   13.11870863   1.65460062   0.00017780
6   14.28832473   -0.12823995  0.0000000
1   14.25256123   -1.22603620   -0.00009173
6   15.60688804   0.48174148   0.00002480
1   15.66662889   1.57590394   0.00014809
6   16.76276385   -0.25459245   -0.00002762
1   16.71054733   -1.34610360   -0.00016787
7   18.05541288   0.25459245   0.00002762
1   18.85648316   -0.35496197   -0.00001152
1   18.22360202   1.24985823   0.00022643

