%nproc=8
%mem=6000MB
#P B3LYP/6-31G scf=tight nosymm polar=dipole

B3LYP-C2H2_11
Geom@mp2/6-31G

0 1
6   6.80605800   0.09482561   0.00019480
1   6.81857205   1.19187381   0.00027392
6   5.59265973   -0.55007446  0.00000941
1   5.57528316   -1.64676875   -0.00006936
6   4.31310712   0.13752561   -0.00001031
1   4.33614883   1.23404682   -0.00007594
6   3.09644289   -0.49452562   0.00007653
1   3.06211417   -1.58975117   0.00012595
6   1.83090628   0.22693712   0.00004682
1   1.85692657   1.31975339   0.00011899
6   0.62449847   -0.38581039   0.00001694
1   0.44439842   -1.45811713   -0.00011235
7   -0.62449847   0.38581039   -0.00001694
8   -0.58063362   1.66890714   0.00025797
8   -1.71342906   -0.30167906   -0.00040011
6   8.09021563   -0.58019550   0.00025620
1   8.08125738   -1.67728333   0.00018483
6   9.30163440   0.07141785   0.00041373
1   9.30830871   1.16859757   0.00043626
6   10.58815306   -0.59716859   0.00032796
1   10.58363391   -1.69442640   0.00078128
6   11.79837372   0.05810284   -0.00032643
1   11.80161986   1.15536841   -0.00073866
6   13.08654548   -0.60647529   -0.00046632
1   13.08491948   -1.70381148   -0.00048120
6   14.29567776   0.05142559   -0.00061163
1   14.29619790   1.14877922   -0.00064066
6   15.58559167   -0.60964351   -0.00083163
1   15.58672458   -1.70700821   -0.00028671
6   16.79319963   0.05111492   -0.00170084
1   16.79051094   1.14857735   -0.00214065
6   18.08564439   -0.60554107   -0.00173603
1   18.09049775   -1.70289470   -0.00221937
6   19.29066081   0.05941594   -0.00117104
1   19.28305281   1.15703004   -0.00079051
6   20.58734130   -0.59033850   -0.00130253
1   20.59822057   -1.68760123   -0.00096830
6   21.78760942   0.08172848   -0.00170222
1   21.77122085   1.17958115   -0.00204906
6   23.09190487   -0.55568704   -0.00182424
1   23.11410753   -1.65249977   -0.00139981
6   24.28210436   0.13102289   -0.00274621
1   24.24616720   1.22882541   -0.00283468
6   25.60126731   -0.47916249   -0.00290729
1   25.66017582   -1.57343929   -0.00412444
6   26.75787947   0.25567692   -0.00114589
1   26.70738949   1.34728195   0.00011967
7   28.05075445   -0.25567692   0.00114589
1   28.85228507   0.35318019   -0.00535266
1   28.21644072   -1.25132544   -0.00338880


