%nproc=8
%mem=6000MB
#P B3LYP/6-31G scf=tight nosymm polar=dipole

B3LYP-C2H2_12
Geom@mp2/6-31G

0 1
6   6.80604118   -0.10038374   -0.00128517
1   6.81795103   -1.19741729   -0.00174938
6   5.59307135   0.54531854   -0.00073320
1   5.57644022   1.64202084   -0.00028491
6   4.31299637   -0.14139413   -0.00072507
1   4.33517569   -1.23791598   -0.00116945
6   3.09689069   0.49170853   -0.00017904
1   3.06351019   1.58695914   0.00028053
6   1.83067987   -0.22866172   -0.00021615
1   1.85567888   -1.32149252   -0.00050158
6   0.62487963   0.38525158     0.00000770
1   0.44577197   1.45772517     0.00036079
7   -0.62487963   -0.38525158  -0.00000770
8   -0.58215735   -1.66837527   -0.00062843
8   -1.71315498   0.30326185   0.00069812
6   8.09050738   0.57409516   -0.00130438
1   8.08198209   1.67118445   -0.00092123
6   9.30170931   -0.07795042   -0.00168232
1   9.30815421   -1.17510238   -0.00206443
6   10.58824552   0.59062156   -0.00166456
1   10.58370245   1.68787999   -0.00136748
6   11.79857083   -0.06454106   -0.00202149
1   11.80216339   -1.16176421   -0.00228455
6   13.08629600   0.60079834   -0.00192775
1   13.08395513   1.69813493   -0.00149071
6   14.29602381   -0.05619279   -0.00238667
1   14.29775307   -1.15348392   -0.00280770
6   15.58478499   0.60680120   -0.00220095
1   15.58417281   1.70417312   -0.00210094
6   16.79374928   -0.05185447   -0.00214785
1   16.79358936   -1.14922391   -0.00228085
6   18.08392082   0.60852372   -0.00199016
1   18.08544770   1.70590502   -0.00177318
6   19.29153391   -0.05247480   -0.00213603
1   19.28861705   -1.14994724   -0.00230598
6   20.58405704   0.60397810   -0.00192238
1   20.58897142   1.70133917   -0.00191447
6   21.78917030   -0.06094155   -0.00170322
1   21.78158493   -1.15856358   -0.00172309
6   23.08582950   0.58888286   -0.00145163
1   23.09658448   1.68614996   -0.00151182
6   24.28624816   -0.08299022   -0.00113639
1   24.27002908   -1.18085075   -0.00105111
6   25.59047010   0.55465853   -0.00086794
1   25.61244048   1.65147592   -0.00106132
6   26.78085651   -0.13176938   -0.00030652
1   26.74516240   -1.22958510   -0.00017190
6   28.09992633   0.47873743   -0.00003132
1   28.15856467   1.57302786   0.00009666
6   29.25675067   -0.25581207   -0.00010033
1   29.20646706   -1.34743426   -0.00015946
7   30.54945702   0.25581207   0.00010033
1   31.35146638   -0.35233183   -0.00052054
1   30.71551453   1.25134381   -0.00033055

