%nproc=8
%mem=6000MB
#P B3LYP/6-31G scf=tight nosymm polar=dipole

B3LYP-C2H2_9
Geom@mp2/6-31G

0 1
6   6.80596609   0.08422779   0.00009125
1   6.81895579   1.18134114   0.00011201
6   5.59198832   -0.55962037   0.00005968
1   5.57354882   -1.65629390   0.00003502
6   4.31329462   0.12931457   0.00006130
1   4.33786563   1.22585073   0.00008885
6   3.09550717   -0.50068680   0.00002880
1   3.05928054   -1.59585025   0.00000447
6   1.83141125   0.22299223   0.00002016
1   1.85964453   1.31577704   0.00004164
6   0.62358747   -0.38710393   -0.00001352
1   0.44116388   -1.45900578   -0.00004515
7   -0.62358747   0.38710393   0.00001352
8   -0.57711360   1.67016406   -0.00022334
8   -1.71411153   -0.29793046   -0.00015733
6   8.09008990   -0.59074115   0.00008252
1   8.08132050   -1.68782352   0.00006868
6   9.30122642   0.06128793   0.00014014
1   9.30682015   1.15857903   0.00013304
6   10.58893532   -0.60516283   0.00008935
1   10.58645788   -1.70241354   0.00024640
6   11.79754095   0.05268403   -0.00012498
1   11.79736230   1.15011687   -0.00026298
6   13.08882472   -0.60661159   -0.00018884
1   13.09202731   -1.70391331   -0.00015990
6   14.29423844   0.05711128   -0.00028611
1   14.28766176   1.15470942   -0.00032899
6   15.59038250   -0.59366674   -0.00038406
1   15.60077452   -1.69090335   -0.00035625
6   16.79064886   0.07819868   -0.00054224
1   16.77434804   1.17604163   -0.00055994
6   18.09482210   -0.55917447   -0.00063933
1   18.11732050   -1.65596081   -0.00078475
6   19.28469701   0.12807168   -0.00072332
1   19.24813059   1.22585224   -0.00049664
6   20.60403511   -0.48121202   -0.00080570
1   20.66391060   -1.57541788   -0.00149480
6   21.75992995   0.25486563   -0.00012505
1   21.70811762   1.34640898   0.00051190
7   23.05300991   -0.25486563   0.00012505
1   23.85412417   0.35452692   -0.00015175
1   23.22055983   -1.25018509   -0.00068004


