%nproc=8
%mem=6000MB
#P B3LYP/6-31G scf=tight nosymm polar=dipole

B3LYP-C2H2_6
Geom@mp2/6-31G

0 1
6    6.80486591    -0.09106785     -0.00057231
1    6.81082304    -1.18859223     -0.00049453
6    5.59363001     0.55782249     -0.00051533
1    5.57918475     1.65451086     -0.00059278
6    4.31314996    -0.12693584     -0.00034272
1    4.33567248    -1.22373242     -0.00026458
6    3.09536372     0.50360623     -0.00028749
1    3.05937367     1.59876177     -0.00036113
6    1.83196352    -0.22000542     -0.00011954
1    1.86127153    -1.31284836     -0.00011565
6    0.62266008     0.38790917     -0.00013863
1    0.43853542     1.45946693     -0.00001764
7   -0.62266008    -0.38790917      0.00013863
8   -0.57495606    -1.67115766     -0.00043517
8   -1.71482993     0.29486918      0.00097109
6    8.09487189     0.57300734     -0.00071427
1    8.09611930     1.67001421     -0.00079732
6    9.29855106    -0.09124009     -0.00080097
1    9.28860064    -1.18912266     -0.00067859
6   10.59914146     0.55276412     -0.00086834
1   10.61734738     1.64947050     -0.00108403
6   11.79081529    -0.13113962     -0.00074457
1   11.75683605    -1.22898240     -0.00049828
6   13.10812026     0.48068015     -0.00076758
1   13.16672746     1.57484899     -0.00124580
6   14.26459320    -0.25490771     -0.00013548
1   14.21296938    -1.34643640      0.00031447
7   15.55642270     0.25490771      0.00013548
1   15.72408521     1.25032769     -0.00032488
1   16.35785332    -0.35429223     -0.00012894


