#p b3lyp/6-31G scf=tight

pccp11

0 1
 C   -0.739281   0.5158785   -1.2071079
 C   -1.4261442   0.3965455   0.
 C   -0.739281   0.5158785   1.2071079
 C   0.6342269   0.7546398   1.2070735
 C   1.3210434   0.8737566   0.
 C   0.6342269   0.7546398   -1.2070735
 H   -1.2719495   0.4206316   -2.1432894
 H   -2.4902205   0.2052381   0.
 H   -1.2719495   0.4206316   2.1432894
 H   1.1668005   0.8474885   2.143695
 H   2.3863585   1.0596312   0.
 H   1.1668005   0.8474885   -2.143695
 N   0.180393   -2.9491231   0.
 H   0.7595495   -3.1459477   -0.8060729
 H   0.7595495   -3.1459477   0.8060729
 H   0.0444167   -1.9449399   0.

