%nproc=8
#P TPSSTPSS/6-311+g(3df,2p) scf=tight iop(3/76=0500005000,5/33=1)
extraoverlay

8/10=90/1;9/16=-3/6;
3/5=4,6=6,7=216,11=2,16=1,25=1,30=1,74=203/1,2,3;
5/5=2,6=-2,32=1,33=1,38=5/2;

23; geometry from JPCA, 2005, 109, 2012-2018

-1 1
        F                  .000371   -2.468340     .021390
        C                 -.276642   -1.074418    -.002690
        H                  .649290    -.516500    -.009016
        H                 -.841989    -.847119    -.897075
        H                 -.851028    -.826589     .881417
        O                 -.301713    1.582524    -.206544
        H                 -.605112    2.492434    -.164305



