%nproc=8
#P TPSSTPSS/6-311+g(3df,2p) scf=tight iop(3/76=0500005000,5/33=1)
extraoverlay

8/10=90/1;9/16=-3/6;
3/5=4,6=6,7=216,11=2,16=1,25=1,30=1,74=203/1,2,3;
5/5=2,6=-2,32=1,33=1,38=5/2;

5; geometry from JPCA, 2005, 109, 2012-2018

0  2
      H           -.009057     .000000    -.007086
      C           -.007035     .000000    1.109678
      O            .956040     .000000    1.785656




