%nproc=8
#P TPSSTPSS/6-311+g(3df,2p) scf=tight iop(3/76=0500005000,5/33=1)
extraoverlay

8/10=90/1;9/16=-3/6;
3/5=4,6=6,7=216,11=2,16=1,25=1,30=1,74=203/1,2,3;
5/5=2,6=-2,32=1,33=1,38=5/2;

9; geometry from JPCA, 2005, 109, 2012-2018

0  2 
      C          1.208440   -0.287189    0.000057
      C         -0.065359    0.576132   -0.000057
      C         -1.314787   -0.239518   -0.000011
      H          1.241369   -0.928395    0.881234
      H          1.241394   -0.928586   -0.880980
      H          2.101871    0.338727    0.000000
      H         -0.048218    1.226851   -0.877089
      H         -0.048272    1.227037    0.876834
      H         -1.729146   -0.615771    0.924435
      H         -1.728763   -0.616415   -0.924369
      
      


