#p b3lyp 6-311+g(3df,2p) scf=tight nosymm

bih3_hbr

0    1
   Bi      0.00000000      0.00000000     -1.03191351
    H     -0.71872189     -1.24486283     -2.05020700
    H     -0.71872189      1.24486283     -2.05020700
    H      1.43744378      0.00000000     -2.05020700
   Br      0.00000000      0.00000000      2.88366063
    H      0.00000000      0.00000000      4.29942259
 
 
 
