#p b3lyp 6-311+g(3df,2p) scf=tight nosymm

bih3_h2o

0    1
   Bi      0.88173516     -1.21359137     -0.28844638
    H      0.66304929     -2.94880979      0.00668746
    H      0.11661015     -0.87036902      1.26334018
    H     -0.69470504     -1.16741576     -1.07588916
    O      0.02897831      1.89470988      0.01081308
    H     -0.66141942      1.74538096      0.65983689
    H     -0.33424845      2.56009510     -0.57634207
 
 
 
