#p b3lyp 6-311+g(3df,2p) scf=tight nosymm

bih3_hi

0    1
   Bi      0.00000000      0.00000000     -1.05655128
    H     -0.71970624     -1.24656778     -2.07028880
    H     -0.71970624      1.24656778     -2.07028880
    H      1.43941249      0.00000000     -2.07028880
    I      0.00000000      0.00000000      2.83695051
    H      0.00000000      0.00000000      4.43069977
 
 
 
