#p b3lyp 6-311+g(3df,2p) scf=tight nosymm

bih3_2

0    1
   Bi      2.22863485      0.34891862      0.00000000
   Bi     -2.22863485     -0.34891862      0.00000000
    H      3.23478865     -0.39488428      1.24306982
    H      1.18805481     -1.07640373      0.00000000
    H      3.23478865     -0.39488428     -1.24306982
    H     -3.23478865      0.39488428     -1.24306982
    H     -1.18805481      1.07640373      0.00000000
    H     -3.23478865      0.39488428      1.24306982
 
 
 
