#p b3lyp 6-311+g(3df,2p) scf=tight nosymm

bih3_hcl

0    1
   Bi      0.00000000      0.00000000     -0.99993044
    H     -0.71818107     -1.24392610     -2.02117970
    H     -0.71818107      1.24392610     -2.02117970
    H      1.43636214      0.00000000     -2.02117970
   Cl      0.00000000      0.00000000      2.89558755
    H      0.00000000      0.00000000      4.16835935
 
 
 
