#p b3lyp 6-311+g(3df,2p) scf=tight nosymm

pbh4_teh2

0    1
   Pb     -0.00279147     -2.15147546      0.00000000
    H     -0.05572387     -0.42898525      0.00000000
    H     -0.79607432     -2.75017053      1.40685646
    H     -0.79607432     -2.75017053     -1.40685646
    H      1.63919672     -2.67243970      0.00000000
   Te      0.01106703      2.81320155      0.00000000
    H      1.15465625      3.98092424      0.00000000
    H     -1.15425603      3.95911568      0.00000000
 
 
 
