#p b3lyp 6-311+g(3df,2p) scf=tight nosymm

pbh4_hi

0    1
   Pb      0.00000000      0.00000000     -1.41301360
    H      0.00000000     -1.39921820     -0.40513541
    H      0.00000000      1.39921820     -0.40513541
    H      1.40865389      0.00000000     -2.40217588
    H     -1.40865389      0.00000000     -2.40217588
    H      0.00000000      0.00000000      4.30972473
    I      0.00000000      0.00000000      2.71791144
 
 
 
