#p b3lyp 6-311+g(3df,2p) scf=tight nosymm

pbh4_hbr

0    1
   Pb      0.00000000      0.00000000     -1.38446718
    H      0.00000000     -1.40251743     -0.38348293
    H      0.00000000      1.40251743     -0.38348293
    H      1.40666485      0.00000000     -2.37801445
    H     -1.40666485      0.00000000     -2.37801445
    H      0.00000000      0.00000000      4.16111331
   Br      0.00000000      0.00000000      2.74634864
 
 
 
