#p b3lyp 6-311+g(3df,2p) scf=tight nosymm

pbh4_2

0    1
   Pb      0.00000000      0.00000000     -2.23269951
    H     -0.99263594      0.99263594     -1.23375994
    H      0.99263594     -0.99263594     -1.23375994
    H     -0.99448943     -0.99448943     -3.22828876
    H      0.99448943      0.99448943     -3.22828876
   Pb      0.00000000      0.00000000      2.23269951
    H     -0.99448943      0.99448943      3.22828876
    H      0.99448943     -0.99448943      3.22828876
    H     -0.99263594     -0.99263594      1.23375994
    H      0.99263594      0.99263594      1.23375994
 
 
 
