#p b3lyp 6-311+g(3df,2p) scf=tight nosymm

pbh4

0    1
   Pb      0.00000000      0.00000000      0.00000000
    H     -0.99444768      0.99444768      0.99444768
    H      0.99444768     -0.99444768      0.99444768
    H     -0.99444768     -0.99444768     -0.99444768
    H      0.99444768      0.99444768     -0.99444768
 
 
 
