#p b3lyp 6-311+g(3df,2p) scf=tight nosymm

pbh4_h2o

0    1
   Pb      1.45480320      1.10892538      0.00000000
    H      1.47889651      2.11593934      1.40038474
    H      2.87767893      0.13386588      0.00000000
    H      0.05309305      0.11740955      0.00000000
    H      1.47889651      2.11593934     -1.40038474
    O     -2.12663244     -1.63842414      0.00000000
    H     -3.04305362     -1.35800806      0.00000000
    H     -2.17368215     -2.59564728      0.00000000
 
 
 
