#p b3lyp 6-311+g(3df,2p) scf=tight nosymm

sbh3_h2s

0    1
   Sb     -0.03970771     -1.34509539      0.00000000
    H      0.69828892     -2.24988663      1.20798226
    H      0.69828892     -2.24988663     -1.20798226
    H     -1.39193773     -2.34188017      0.00000000
    H      0.80055467      3.35842551      0.00000000
    S     -0.50046017      3.07120358      0.00000000
    H     -0.26502690      1.75711974      0.00000000
 
 
 
