#p b3lyp 6-311+g(3df,2p) scf=tight nosymm

sbh3_h2o

0    1
   Sb     -0.04344427     -1.16929163      0.00000000
    H      0.71456304     -2.04845588      1.21137393
    H      0.71456304     -2.04845588     -1.21137393
    H     -1.37647973     -2.18977721      0.00000000
    O      0.35810887      2.63898053      0.00000000
    H      0.11078631      1.71030402      0.00000000
    H     -0.47809727      3.10669605      0.00000000
 
 
 
