#p b3lyp 6-311+g(3df,2p) scf=tight nosymm

sbh3_hbr

0    1
   Sb      0.00000000      0.00000000      0.71470899
    H      0.00000000      0.00000000     -2.10600374
   Br      0.00000000      0.00000000     -3.52885920
    H     -0.69982700     -1.21213593      1.63998487
    H     -0.69982700      1.21213593      1.63998487
    H      1.39965401      0.00000000      1.63998487
 
 
 
