#p b3lyp 6-311+g(3df,2p) scf=tight nosymm

sbh3_hi

0    1
   Sb      0.00000000      0.00000000      0.75433135
    H      0.00000000      0.00000000     -2.10346117
    I      0.00000000      0.00000000     -3.70234069
    H     -0.69909387     -1.21086611      1.68361271
    H     -0.69909387      1.21086611      1.68361271
    H      1.39818775      0.00000000      1.68361271
 
 
 
