#p b3lyp 6-311+g(3df,2p) scf=tight nosymm

sbh3_hcl

0    1
   Sb      0.00000000      0.00000000      0.68123831
    H      0.00000000      0.00000000     -2.10660429
   Cl      0.00000000      0.00000000     -3.38689667
    H     -0.70027662     -1.21291469      1.60399463
    H     -0.70027662      1.21291469      1.60399463
    H      1.40055324      0.00000000      1.60399463
 
 
 
