#p b3lyp 6-311+g(3df,2p) scf=tight nosymm

teh2_hi

0    1
   Te     -1.76924260     -1.24345138      0.00000000
    H     -0.50037755     -0.21226995      0.00000000
    H     -2.80143148      0.02224694      0.00000000
    H      2.89092935      0.00544617      0.00000000
    I      2.18012229      1.42802822      0.00000000
 
 
 
