#p b3lyp 6-311+g(3df,2p) scf=tight nosymm

teh2_hbr

0    1
   Te     -1.11605522     -1.07385188      0.00000000
    H     -1.11279142      0.55863833      0.00000000
    H     -2.75180539     -1.07371556      0.00000000
    H      2.41574499      1.49771045      0.00000000
   Br      2.56490705      0.09121866      0.00000000
 
 
 
