#p b3lyp 6-311+g(3df,2p) scf=tight nosymm

teh2_h2o

0    1
   Te      0.00000000      0.00000000     -1.62022385
    H     -1.14729177      0.00000000     -2.78676401
    H      1.14729177      0.00000000     -2.78676401
    O      0.00000000      0.00000000      2.00527788
    H     -0.75610234      0.00000000      2.59423699
    H      0.75610234      0.00000000      2.59423699
 
 
 
