#p b3lyp 6-311+g(3df,2p) scf=tight nosymm

teh2_h2s

0    1
   Te      0.00000000      0.00000000     -1.97516896
    H     -1.15322072      0.00000000     -3.13323112
    H      1.15322072      0.00000000     -3.13323112
    H      0.96025447      0.00000000      3.05516920
    S      0.00000000      0.00000000      2.13129280
    H     -0.96025447      0.00000000      3.05516920
 
 
 
