#p b3lyp 6-311+g(3df,2p) scf=tight nosymm

c3h7ts

0    2
    C     -0.47213244      0.64593487     -0.00004300
    C     -1.38261834     -0.36388500     -0.00000200
    H     -0.23204421      1.16457616     -0.91726519
    H     -0.23234213      1.16476137      0.91716994
    H     -1.72712858     -0.80981047      0.92251992
    H     -1.72693807     -0.81013327     -0.92243525
    C      1.61201666     -0.24218906      0.00003500
    H      2.19518053      0.66867361     -0.00126900
    H      1.58942608     -0.80961996     -0.91863047
    H      1.59024631     -0.80759851      0.91996929
 
 
 
