#p b3lyp 6-311+g(3df,2p) scf=tight nosymm

ch3fclts

0    2
   Cl      1.45475048     -0.00123700     -0.00004000
    F     -0.32358710      0.00463100      0.00012400
    C     -2.38742003     -0.00214700     -0.00007300
    H     -2.49508642     -0.85536204     -0.64940627
    H     -2.49731426     -0.13867300      1.06313818
    H     -2.50153709      0.98626990     -0.41373403
 
 
 
