#p b3lyp 6-311+g(3df,2p) scf=tight nosymm

hoch3fts

-1    1
    F      1.85061737     -0.01317900     -0.00012800
    C      0.09085708      0.01058598      0.00026900
    H      0.04090704      1.07954797     -0.01174900
    H      0.03716300     -0.52801302     -0.92294326
    H      0.03748601     -0.50746295      0.93513021
    O     -1.89280338      0.10326629     -0.00011800
    H     -2.17382294     -0.81511282      0.00003900
 
 
 
