#p b3lyp 6-311+g(3df,2p) scf=tight nosymm

hoch3fcomp2

-1    1
    F      1.89905296     -0.07645711     -0.00540401
    C      0.48941325      0.10548407      0.00676802
    H      0.00130400     -0.78616683     -0.36115498
    H      0.17194290      0.29835805      1.02324351
    H      0.24974413      0.94747063     -0.63088507
    O     -2.16944664     -0.07314287     -0.00232000
    H     -3.09536917      0.18069708     -0.00462400
 
 
 
