#p b3lyp 6-311+g(3df,2p) scf=tight nosymm

RKT08

0    2
    C     -1.80062071      0.16805822      0.21737330
    H     -2.15164512     -0.76438590     -0.20442010
    H     -2.00034277      1.06077276     -0.36034534
    H     -1.87513944      0.26606236      1.29228250
    H     -0.42002594      0.03936502      0.05085504
   Cl      1.01476080     -0.09471478     -0.12250611
 
 
 
