#p b3lyp 6-311+g(3df,2p) scf=tight nosymm

RKT11

0    3
    C      0.00029000     -1.14228722      0.00000000
    H     -1.05595725     -1.38473505      0.00000000
    H      0.52016744     -1.40738912      0.91244968
    H      0.52016744     -1.40738912     -0.91244968
    H      0.01155998      0.16009886      0.00000000
    O      0.00029000      1.36164175      0.00000000
 
 
 
