#p b3lyp 6-311+g(3df,2p) scf=tight nosymm

01_Water-Water_2_z_+30

0    1
    O     -2.97035283     -0.10573749     -0.00014599
    H     -3.29737262      0.79483368     -0.00000000
    H     -2.01142715     -0.00000000     -0.00000000
    O     -0.00212713      0.00000000      0.00000000
    H      0.55260403     -0.20431431      0.75597387
    H      0.55233036     -0.20488064     -0.75603256
 
 
 
