#p b3lyp 6-311+g(3df,2p) scf=tight nosymm

02_Water-MeOH_2_y_-30

0    1
    O     -2.90611406     -0.15862049     -0.13249950
    H     -3.30283489      0.70335373     -0.00000000
    H     -1.96234680     -0.00000000     -0.00000000
    O      0.07610844      0.00000000      0.00000000
    H      0.05432663     -0.37674341      0.88279018
    C      0.95934866     -0.79529268     -0.78683313
    H      0.96585169     -0.36158735     -1.78109894
    H      1.97509100     -0.78008256     -0.39255471
    H      0.61741715     -1.82711046     -0.86436159
 
 
 
