#p b3lyp 6-311+g(3df,2p) scf=tight nosymm

02_Water-MeOH_2_y_+30

0    1
    O     -2.90611406     -0.15862049     -0.13249950
    H     -3.30283489      0.70335373     -0.00000000
    H     -1.96234680     -0.00000000     -0.00000000
    O      0.31822543      0.00000000      0.00000000
    H      1.07185324     -0.37674341      0.46025869
    C      0.07842806     -0.79529268     -1.15832504
    H     -0.77937988     -0.36158735     -1.66108973
    H      0.92775436     -0.78008256     -1.84084449
    H     -0.15967931     -1.82711046     -0.90096788
 
 
 
