#p b3lyp 6-311+g(3df,2p) scf=tight nosymm

03_Water-MeNH2_1_z_+30

0    1
    O      0.96625054     -0.09986234      0.00874172
    H      1.28947298      0.80186438      0.00000000
    H      0.00000000     -0.00000000      0.00000000
    N     -1.91029681     -1.00598187      0.00000000
    H     -1.85082552     -1.64809822      0.78005843
    H     -1.91474972     -1.58545874     -0.82971809
    C     -3.16517216     -0.25288588      0.07932811
    H     -3.22858860      0.42343738     -0.76966696
    H     -4.06682333     -0.86889325      0.09117553
    H     -3.15881761      0.35522443      0.98062775
 
 
 
