#p b3lyp 6-311+g(3df,2p) scf=tight nosymm

04_Water-Peptide_1_y_+30

0    1
    O      0.94478958     -0.21968068      0.00848481
    H      1.37873790      0.63437239     -0.00000000
    H      0.00000000      0.00000000      0.00000000
    C     -1.44054787     -2.35920591      0.79293379
    H     -1.90851674     -3.29181509      1.09769128
    H     -0.44081069     -2.29694401      1.21541199
    H     -1.32656245     -2.34416882     -0.28809308
    C     -2.21970594     -1.13936998      1.21359038
    O     -1.83630384      0.00000000      0.95240338
    N     -3.36588820     -1.38184558      1.89576624
    H     -3.61557800     -2.33730062      2.07287967
    C     -4.22698648     -0.32057747      2.37018995
    H     -3.77200617      0.61794186      2.07117204
    H     -5.21857415     -0.39385963      1.92786419
    H     -4.31698574     -0.34450762      3.45441238
 
 
 
