#p b3lyp 6-311+g(3df,2p) scf=tight nosymm

05_MeOH-MeOH_1_z_+30

0    1
    O      0.95290245     -0.00189177      0.16057898
    H      0.00000000      0.00000000      0.00000000
    C      1.40482947      1.32683832      0.00000000
    H      2.47289351      1.33438702      0.20091548
    H      1.24961064      1.70273645     -1.01412192
    H      0.92609732      2.01901244      0.69741685
    O     -1.80990435     -0.96837126      0.00000000
    H     -1.92852825     -1.70330925     -0.60625538
    C     -2.03901653     -1.45210863      1.32060947
    H     -1.88286266     -0.61312274      1.99056217
    H     -3.05939119     -1.81327775      1.44631672
    H     -1.34032752     -2.24324662      1.59167668
 
 
 
