#p b3lyp 6-311+g(3df,2p) scf=tight nosymm

05_MeOH-MeOH_2_z_-30

0    1
    O     -2.88964497     -0.00189177     -0.16057898
    H     -1.93674253     -0.00000000     -0.00000000
    C     -3.34157200      1.32683832     -0.00000000
    H     -4.40963604      1.33438702     -0.20091548
    H     -3.18635317      1.70273645      1.01412192
    H     -2.86283985      2.01901244     -0.69741685
    O      0.03354544      0.00000000      0.00000000
    H      0.15216933     -0.73493799      0.60625538
    C      0.26265762     -0.48373736     -1.32060947
    H      0.10650375      0.35524853     -1.99056217
    H      1.28303228     -0.84490649     -1.44631672
    H     -0.43603139     -1.27487535     -1.59167668
 
 
 
