#p b3lyp 6-311+g(3df,2p) scf=tight nosymm

06_MeOH-MeNH2_1_y_-30

0    1
    O      0.96959574      0.08007877      0.00285958
    H      0.00000000      0.00000000      0.00000000
    C      1.26291710      1.45833936     -0.00000000
    H      2.34473752      1.56812610      0.00184960
    H      0.87845524      1.97023329     -0.88746125
    H      0.87495755      1.97461483      0.88338715
    N     -1.90195913      0.00000000     -0.98468068
    H     -2.59271498     -0.52916603     -0.46786884
    H     -1.79214146     -0.48273762     -1.86737546
    C     -2.40262008      1.35715254     -1.22595763
    H     -1.66036156      1.91384389     -1.79277182
    H     -3.35029818      1.40309833     -1.76645550
    H     -2.53006708      1.86330587     -0.27218575
 
 
 
