#p b3lyp 6-311+g(3df,2p) scf=tight nosymm

07_MeOH-Peptide_2_z_-30

0    1
    O     -2.83357582      0.16519578      0.08636954
    H     -1.88111951      0.00000000     -0.00000000
    C     -3.27174157     -0.56587022      1.21095267
    H     -4.33456036     -0.37371974      1.33590575
    H     -3.13528090     -1.64309268      1.08899313
    H     -2.76471207     -0.26236410      2.13170015
    C      0.88112385      1.95419564      1.11955249
    H      1.78142676      2.56315135      1.09381510
    H      0.65903140      1.69700175      2.15405053
    H      0.03782105      2.51986498      0.73306242
    C      1.01455972      0.67942658      0.32631580
    O      0.04126099      0.00000000      0.00000000
    N      2.27568808      0.31375386      0.00000000
    H      3.04044656      0.86575031      0.34169115
    C      2.54119700     -0.92117796     -0.70782511
    H      1.75886859     -1.07456824     -1.44459538
    H      3.50193817     -0.84760476     -1.20847668
    H      2.55026610     -1.77911040     -0.03658396
 
 
 
