#p b3lyp 6-311+g(3df,2p) scf=tight nosymm

07_MeOH-Peptide_1_z_+30

0    1
    O      0.95245631      0.16519578     -0.08636954
    H      0.00000000      0.00000000      0.00000000
    C      1.39062207     -0.56587022     -1.21095267
    H      2.45344085     -0.37371974     -1.33590575
    H      1.25416139     -1.64309268     -1.08899313
    H      0.88359256     -0.26236410     -2.13170015
    C     -2.58296156      1.01363588     -1.11955249
    H     -3.48326446      1.62259159     -1.09381510
    H     -2.36086910      0.75644199     -2.15405053
    H     -1.73965876      1.57930523     -0.73306242
    C     -2.71639742     -0.26113318     -0.32631580
    O     -1.74309869     -0.94055975      0.00000000
    N     -3.97752578     -0.62680590      0.00000000
    H     -4.74228426     -0.07480945     -0.34169115
    C     -4.24303471     -1.86173771      0.70782511
    H     -3.46070630     -2.01512799      1.44459538
    H     -5.20377587     -1.78816451      1.20847668
    H     -4.25210380     -2.71967016      0.03658396
 
 
 
