#p b3lyp 6-311+g(3df,2p) scf=tight nosymm

09_MeNH2-MeOH_1_y_+30

0    1
    N      0.96354520      0.25648738      0.18030339
    H      0.00000000     -0.00000000      0.00000000
    H      1.51680693     -0.22680018     -0.51478230
    C      1.11486894      1.69836485      0.00000000
    H      2.15226742      1.97971055      0.17052721
    H      0.82172338      2.08065327     -0.98336201
    H      0.51802660      2.21643022      0.74846380
    O     -2.16398900      0.00000000      1.13128731
    H     -1.99321401     -0.40960642      1.98265737
    C     -2.61771156      1.32388263      1.37753126
    H     -2.80787537      1.77507145      0.40868019
    H     -3.54500902      1.34028584      1.95146427
    H     -1.86988388      1.92607243      1.89542846
 
 
 
