#p b3lyp 6-311+g(3df,2p) scf=tight nosymm

09_MeNH2-MeOH_2_z_+30

0    1
    N     -3.22611983      0.25648738     -0.18030339
    H     -2.26257462      0.00000000      0.00000000
    H     -3.77938155     -0.22680018      0.51478230
    C     -3.37744356      1.69836485      0.00000000
    H     -4.41484204      1.97971055     -0.17052721
    H     -3.08429800      2.08065327      0.98336201
    H     -2.78060122      2.21643022     -0.74846380
    O      0.42374195      0.00000000      0.00000000
    H      0.86911796     -0.21583479     -0.82269560
    C      0.20871931      1.40454460      0.01360777
    H     -0.29377706      1.63541616      0.94773931
    H      1.14451108      1.96376504     -0.01978407
    H     -0.42899028      1.73171169     -0.80881821
 
 
 
