#p b3lyp 6-311+g(3df,2p) scf=tight nosymm

09_MeNH2-MeOH_2_z_-30

0    1
    N     -3.22611983      0.25648738     -0.18030339
    H     -2.26257462      0.00000000      0.00000000
    H     -3.77938155     -0.22680018      0.51478230
    C     -3.37744356      1.69836485      0.00000000
    H     -4.41484204      1.97971055     -0.17052721
    H     -3.08429800      2.08065327      0.98336201
    H     -2.78060122      2.21643022     -0.74846380
    O      0.00975436      0.00000000      0.00000000
    H      0.04552396     -0.49362434     -0.82269560
    C      1.11861435      0.88848737      0.01360777
    H      1.06730680      1.43909777      0.94773931
    H      2.07080934      0.35767814     -0.01978407
    H      1.08309457      1.60434362     -0.80881821
 
 
 
