#p b3lyp 6-311+g(3df,2p) scf=tight nosymm

10_MeNH2-MeNH2_2_z_-30

0    1
    N     -3.17657760      0.47032238      0.00000000
    H     -2.27660219     -0.00000000      0.00000000
    H     -3.82813386     -0.16547113     -0.44087101
    C     -3.59389155      0.70373531      1.38084680
    H     -4.56235447      1.20056194      1.39094125
    H     -3.67001128     -0.19306070      2.00386482
    H     -2.88475372      1.37743047      1.85843182
    N      0.08061065      0.00000000      0.00000000
    H      0.24315292     -0.05036428     -0.99767036
    H      0.45259174     -0.86044549      0.38059276
    C      0.81721680      1.14085444      0.55230592
    H      0.68160967      1.16027752      1.63147591
    H      1.89041387      1.13838160      0.34644229
    H      0.39154153      2.05885048      0.15382456
 
 
 
