#p b3lyp 6-311+g(3df,2p) scf=tight nosymm

11_MeNH2-Peptide_1_y_-30

0    1
    N      0.80346365      0.61899393     -0.02068077
    H      0.00000000      0.00000000      0.00000000
    H      1.61267343      0.03073904     -0.16961552
    C      0.65610014      1.53348186     -1.15184025
    H      1.51762555      2.19726770     -1.19830741
    H      0.54693160      1.05136841     -2.12789783
    H     -0.22288869      2.15679501     -0.99432490
    C     -2.83370250      1.46990294      0.65596268
    H     -3.40327213      0.70815343      1.18323277
    H     -3.32057240      2.43407846      0.78254816
    H     -1.83631330      1.50101518      1.09172933
    C     -2.69950382      1.05526269     -0.78707412
    O     -2.16788560     -0.00000000     -1.12063503
    N     -3.17838512      1.93491175     -1.70404720
    H     -3.67596243      2.74464642     -1.38393088
    C     -3.12803332      1.63566230     -3.11879374
    H     -2.17257994      1.17165483     -3.34518169
    H     -3.91737681      0.94645109     -3.41778536
    H     -3.22554255      2.55808919     -3.68378224
 
 
 
