#p b3lyp 6-311+g(3df,2p) scf=tight nosymm

13_Peptide-MeOH_1_z_-30

0    1
    C      0.73836405      2.37693595      0.57349118
    H     -0.28104831      2.05431273      0.77034752
    H      0.72746607      3.21027701     -0.12569857
    H      1.19228422      2.73057352      1.49591968
    C      1.60548706      1.27917410      0.00000000
    O      2.79654211      1.44602380     -0.24171972
    N      0.97305151      0.10567720     -0.24027936
    H      0.00000000     -0.00000000      0.00000000
    C      1.70869441     -1.01460976     -0.78255475
    H      2.24124361     -0.71520402     -1.68250986
    H      2.44491019     -1.38962173     -0.07256534
    H      1.00874371     -1.80916656     -1.02435895
    O     -2.27888224      1.00740139     -0.00000000
    H     -3.05143604      1.12959994      0.55636269
    C     -2.36768762      1.92442033     -1.08596428
    H     -1.48413645      1.76830733     -1.69728765
    H     -3.24977754      1.74327827     -1.69979347
    H     -2.37437187      2.95965813     -0.74482813
 
 
 
