#p b3lyp 6-311+g(3df,2p) scf=tight nosymm

14_Peptide-MeNH2_2_z_+30

0    1
    C     -2.97979109      2.33143010     -0.52767147
    H     -1.95972363      2.06847585     -0.79771911
    H     -2.96407385      3.11076724      0.23145952
    H     -3.49326921      2.73202157     -1.39794145
    C     -3.77096574      1.15525046     -0.00000000
    O     -4.96932728      1.23926929      0.25258875
    N     -3.06507197      0.01480581      0.17395388
    H     -2.06572570      0.00000000     -0.00000000
    C     -3.71985332     -1.16043652      0.70158943
    H     -4.60345635     -1.39876519      0.11345605
    H     -3.02616976     -1.99588712      0.66089693
    H     -4.04089590     -1.01171512      1.73236066
    N      0.14933386      0.00000000      0.00000000
    H      0.33177268      0.60565547     -0.79036973
    H      0.96178533     -0.59967804      0.07156888
    C      0.03193435      0.80829567      1.21924637
    H     -0.15106735      0.15002217      2.06520332
    H      0.90669322      1.42146249      1.44468674
    H     -0.83015448      1.46503763      1.12910054
 
 
 
