#p b3lyp 6-311+g(3df,2p) scf=tight nosymm

15_Peptide-Peptide_2_y_+30

0    1
    C     -2.79097833      2.33052923     -0.50294292
    H     -3.25827373      2.73639781     -1.39672934
    H     -1.76859856      2.03634442     -0.72766927
    H     -2.78972518      3.11708805      0.24929677
    C     -3.63953822      1.18311120      0.00000000
    O     -4.83882163      1.31936136      0.22108490
    N     -2.96435481      0.02123926      0.18420489
    H     -1.96933021      0.00000000      0.00000000
    C     -3.62726041     -1.17287359      0.65340968
    H     -4.66892439     -0.92096032      0.82783215
    H     -3.57232250     -1.97099111     -0.08573460
    H     -3.18581987     -1.52921881      1.58371976
    C      0.98288512      1.31422723      1.76112137
    H      1.94913449      1.43356421      2.24510458
    H      0.27223639      0.89039284      2.46561919
    H      0.61043324      2.29479075      1.47018624
    C      1.03896583      0.43650137      0.53542895
    O      0.02091880      0.00000000      0.00000000
    N      2.28057109      0.18133011      0.05816838
    H      3.06359017      0.58299746      0.54070175
    C      2.50752744     -0.60601070     -1.13495151
    H      1.54146177     -0.97327734     -1.46507042
    H      2.94837489     -0.00280399     -1.92629836
    H      3.15983323     -1.45031546     -0.92318767
 
 
 
