#p b3lyp 6-311+g(3df,2p) scf=tight nosymm

16_Peptide-Water_2_z_+30

0    1
    C     -2.99682566      2.35528121     -0.00000000
    H     -1.92506688      2.17469594     -0.01903999
    H     -3.25197275      2.93701801      0.88270196
    H     -3.28275733      2.94060135     -0.87066271
    C     -3.81520642      1.08403144      0.01162955
    O     -5.04094342      1.10729682      0.02324583
    N     -3.08615153     -0.06208423      0.00914607
    H     -2.08087034      0.00000000     -0.00000000
    C     -3.71665769     -1.36147216      0.02078264
    H     -4.78993767     -1.19961164      0.04302278
    H     -3.46174215     -1.93293196     -0.87076327
    H     -3.42422969     -1.93382254      0.89995056
    O      0.01070371      0.00000000      0.00000000
    H      0.54572438      0.22465067      0.76416029
    H      0.58885025      0.16617130     -0.74753498
 
 
 
