#p b3lyp 6-311+g(3df,2p) scf=tight nosymm

17_Uracil-Uracil_BP_2_y_+30

0    1
    N     -2.44400555      1.08072150      0.00005584
    H     -1.41964377      1.18540740      0.00088164
    C     -2.94432586     -0.21025887     -0.00086656
    O     -2.18983083     -1.18540740     -0.00088164
    C     -4.38802325     -0.30742462     -0.00199598
    H     -4.84389336     -1.28197198     -0.00278180
    C     -5.12620269      0.82211419     -0.00207068
    H     -6.20604785      0.81259997     -0.00289917
    N     -4.54241348      2.05548389     -0.00112400
    H     -5.09592037      2.89628763     -0.00120366
    C     -3.16777883      2.25890560      0.00000000
    O     -2.67309570      3.36616472      0.00081898
    N      2.23791551      0.22738870     -1.24610640
    H      2.58459393      1.15600710     -1.44456059
    C      3.02712563     -0.84116728     -1.70494011
    O      4.06603344     -0.62672743     -2.30533588
    C      2.46530561     -2.13879722     -1.38290742
    H      2.99546719     -3.02310091     -1.69151120
    C      1.29822154     -2.21287421     -0.70807474
    H      0.83966976     -3.15462623     -0.44496877
    N      0.60947817     -1.10196060     -0.30724604
    H     -0.27688701     -1.17678595      0.20518377
    C      1.04976506      0.17082356     -0.55909092
    O      0.44161727      1.17678595     -0.20518377
 
 
 
