#p b3lyp 6-311+g(3df,2p) scf=tight nosymm

17_Uracil-Uracil_BP_2_y_-30

0    1
    N     -2.44400555      1.08072150      0.00005584
    H     -1.41964377      1.18540740      0.00088164
    C     -2.94432586     -0.21025887     -0.00086656
    O     -2.18983083     -1.18540740     -0.00088164
    C     -4.38802325     -0.30742462     -0.00199598
    H     -4.84389336     -1.28197198     -0.00278180
    C     -5.12620269      0.82211419     -0.00207068
    H     -6.20604785      0.81259997     -0.00289917
    N     -4.54241348      2.05548389     -0.00112400
    H     -5.09592037      2.89628763     -0.00120366
    C     -3.16777883      2.25890560      0.00000000
    O     -2.67309570      3.36616472      0.00081898
    N      2.23882300      0.22738870      1.24370819
    H      2.58402858      1.15600710      1.44471341
    C      3.03078970     -0.84116728      1.69776734
    O      4.07020160     -0.62672743      2.29729002
    C      2.47099120     -2.13879722      1.37223328
    H      3.00333071     -3.02310091      1.67706479
    C      1.30302693     -2.21287421      0.69892516
    H      0.84589458     -3.15462623      0.43336066
    N      0.61152740     -1.10196060      0.30287026
    H     -0.27543242     -1.17678595     -0.20852960
    C      1.04977491      0.17082356      0.55824745
    O      0.43920844      1.17678595      0.20852960
 
 
 
