#p b3lyp 6-311+g(3df,2p) scf=tight nosymm

17_Uracil-Uracil_BP_2_z_-30

0    1
    N     -2.44400555      1.08072150      0.00005584
    H     -1.41964377      1.18540740      0.00088164
    C     -2.94432586     -0.21025887     -0.00086656
    O     -2.18983083     -1.18540740     -0.00088164
    C     -4.38802325     -0.30742462     -0.00199598
    H     -4.84389336     -1.28197198     -0.00278180
    C     -5.12620269      0.82211419     -0.00207068
    H     -6.20604785      0.81259997     -0.00289917
    N     -4.54241348      2.05548389     -0.00112400
    H     -5.09592037      2.89628763     -0.00120366
    C     -3.16777883      2.25890560      0.00000000
    O     -2.67309570      3.36616472      0.00081898
    N      2.91807342     -1.04798290     -0.00138461
    H      3.72832462     -0.44350549      0.00008823
    C      3.17438384     -2.42982596     -0.00414120
    O      4.32076362     -2.84407482     -0.00464528
    C      1.96475961     -3.22982308     -0.00616272
    H      2.05385831     -4.30237018     -0.00834064
    C      0.76019694     -2.61990524     -0.00528251
    H     -0.16852113     -3.17115117     -0.00670194
    N      0.62553230     -1.25938403     -0.00252636
    H     -0.29854288     -0.81226985     -0.00193172
    C      1.70119158     -0.41073165     -0.00048698
    O      1.59481565      0.81226985      0.00193172
 
 
 
