#p b3lyp 6-311+g(3df,2p) scf=tight nosymm

17_Uracil-Uracil_BP_1_y_+30

0    1
    N      0.63926825      1.08072150     -0.00005584
    H     -0.38509353      1.18540740     -0.00088164
    C      1.13958856     -0.21025887      0.00086656
    O      0.38509353     -1.18540740      0.00088164
    C      2.58328596     -0.30742462      0.00199598
    H      3.03915607     -1.28197198      0.00278180
    C      3.32146540      0.82211419      0.00207068
    H      4.40131055      0.81259997      0.00289917
    N      2.73767618      2.05548389      0.00112400
    H      3.29118307      2.89628763      0.00120366
    C      1.36304154      2.25890560     -0.00000000
    O      0.86835840      3.36616472     -0.00081898
    N     -3.82257788      0.22738870      2.14847505
    H     -4.16925630      1.15600710      2.34692924
    C     -4.61178800     -0.84116728      2.60730876
    O     -5.65069581     -0.62672743      3.20770453
    C     -4.04996798     -2.13879722      2.28527607
    H     -4.58012957     -3.02310091      2.59387985
    C     -2.88288391     -2.21287421      1.61044339
    H     -2.42433213     -3.15462623      1.34733742
    N     -2.19414054     -1.10196060      1.20961469
    H     -1.30777536     -1.17678595      0.69718488
    C     -2.63442743      0.17082356      1.46145957
    O     -2.02627964      1.17678595      1.10755242
 
 
 
