#p b3lyp 6-311+g(3df,2p) scf=tight nosymm

17_Uracil-Uracil_BP_1_z_+30

0    1
    N      0.63926825      1.08072150     -0.00005584
    H     -0.38509353      1.18540740     -0.00088164
    C      1.13958856     -0.21025887      0.00086656
    O      0.38509353     -1.18540740      0.00088164
    C      2.58328596     -0.30742462      0.00199598
    H      3.03915607     -1.28197198      0.00278180
    C      3.32146540      0.82211419      0.00207068
    H      4.40131055      0.81259997      0.00289917
    N      2.73767618      2.05548389      0.00112400
    H      3.29118307      2.89628763      0.00120366
    C      1.36304154      2.25890560     -0.00000000
    O      0.86835840      3.36616472     -0.00081898
    N     -4.53399012     -1.95035155      0.00138461
    H     -5.34424132     -1.34587414     -0.00008823
    C     -4.79030054     -3.33219461      0.00414120
    O     -5.93668032     -3.74644347      0.00464528
    C     -3.58067631     -4.13219172      0.00616272
    H     -3.66977501     -5.20473883      0.00834064
    C     -2.37611364     -3.52227389      0.00528251
    H     -1.44739557     -4.07351982      0.00670194
    N     -2.24144900     -2.16175267      0.00252636
    H     -1.31737382     -1.71463850      0.00193172
    C     -3.31710828     -1.31310029      0.00048698
    O     -3.21073235     -0.09009880     -0.00193172
 
 
 
