#p b3lyp 6-311+g(3df,2p) scf=tight nosymm

17_Uracil-Uracil_BP_1_z_-30

0    1
    N      0.63926825      1.08072150     -0.00005584
    H     -0.38509353      1.18540740     -0.00088164
    C      1.13958856     -0.21025887      0.00086656
    O      0.38509353     -1.18540740      0.00088164
    C      2.58328596     -0.30742462      0.00199598
    H      3.03915607     -1.28197198      0.00278180
    C      3.32146540      0.82211419      0.00207068
    H      4.40131055      0.81259997      0.00289917
    N      2.73767618      2.05548389      0.00112400
    H      3.29118307      2.89628763      0.00120366
    C      1.36304154      2.25890560     -0.00000000
    O      0.86835840      3.36616472     -0.00081898
    N     -4.31638474      2.34420034      0.00138461
    H     -4.19801754      3.34813716     -0.00008823
    C     -5.64125114      1.87525014      0.00414120
    O     -6.57319107      2.66091972      0.00464528
    C     -5.72925685      0.42768627      0.00616272
    H     -6.70265925     -0.03142554      0.00834064
    C     -4.59877118     -0.31053668      0.00528251
    H     -4.61180512     -1.39045309      0.00670194
    N     -3.35319292      0.25310092      0.00252636
    H     -2.50394310     -0.32361457      0.00193172
    C     -3.15606804      1.60897538      0.00048698
    O     -2.04372972      2.12835186     -0.00193172
 
 
 
