#p b3lyp 6-311+g(3df,2p) scf=tight nosymm

19_MeOH-Pyridine_2_y_+30

0    1
    O     -2.92067615      0.08801830     -0.00148693
    H     -1.95279063     -0.00000000     -0.00000000
    C     -3.19555865      1.47118595      0.00000000
    H     -4.27591009      1.59407331     -0.00309808
    H     -2.80365651      1.97760392      0.88682020
    H     -2.79826081      1.98053743     -0.88273782
    N      0.07125438     -0.00000000      0.00000000
    C      1.24727605     -0.01468529      0.64239112
    H      1.19682698     -0.00656926      1.72378829
    C      2.47527404     -0.04122012     -0.01125451
    H      3.39200532     -0.05252533      0.56048220
    C      2.49222040     -0.05352290     -1.40206120
    H      3.42748410     -0.07502583     -1.94369964
    C      1.27751122     -0.03851229     -2.07963351
    H      1.23791307     -0.04767223     -3.15923579
    C      0.09945051     -0.01206866     -1.33976570
    H     -0.86367710     -0.00186185     -1.83424922
 
 
 
