#p b3lyp 6-311+g(3df,2p) scf=tight nosymm

19_MeOH-Pyridine_1_y_+30

0    1
    O      0.96788551      0.08801830      0.00148693
    H     -0.00000000      0.00000000     -0.00000000
    C      1.24276801      1.47118595      0.00000000
    H      2.32311945      1.59407331      0.00309808
    H      0.85086587      1.97760392     -0.88682020
    H      0.84547017      1.98053743      0.88273782
    N     -1.86786632      0.00000000      0.97639532
    C     -3.04388799     -0.01468529      0.33400419
    H     -2.99343892     -0.00656926     -0.74739297
    C     -4.27188598     -0.04122012      0.98764983
    H     -5.18861725     -0.05252533      0.41591312
    C     -4.28883234     -0.05352290      2.37845651
    H     -5.22409604     -0.07502583      2.92009496
    C     -3.07412316     -0.03851229      3.05602883
    H     -3.03452500     -0.04767223      4.13563111
    C     -1.89606245     -0.01206866      2.31616101
    H     -0.93293484     -0.00186185      2.81064454
 
 
 
