#p b3lyp 6-311+g(3df,2p) scf=tight nosymm

20_AcOH-AcOH_2_z_+30

0    1
    C     -2.77581770      0.10590206      0.00035565
    O     -2.06615549      1.10399458      0.00000000
    O     -2.31095628     -1.13325520     -0.00014103
    H     -1.31699886     -1.10399458      0.00000000
    C     -4.27224476      0.16015481      0.00333229
    H     -4.60365573      1.19114822     -0.01498987
    H     -4.65552556     -0.37662612     -0.86103836
    H     -4.64841302     -0.34084207      0.89224863
    C      1.65692358      0.45042094     -0.00019338
    O      1.54132542     -0.76882266      0.00012793
    O      0.63469737      1.29119886     -0.00022544
    H     -0.21148726      0.76882266     -0.00012793
    C      2.97997869      1.15169389     -0.00088367
    H      3.78247628      0.42436309      0.00156061
    H      3.04994643      1.78859548     -0.87936429
    H      3.04862559      1.79341501      0.87422434
 
 
 
