#p b3lyp 6-311+g(3df,2p) scf=tight nosymm

21_AcNH2-AcNH2_1_y_+30

0    1
    C      1.12174674      0.11101601     -0.00178048
    O      0.48869759      1.16920731      0.00000000
    N      0.53044559     -1.09756879     -0.00089306
    H     -0.48869759     -1.16920731     -0.00000000
    H      1.08676866     -1.93010664     -0.00321407
    C      2.63129029      0.12091542     -0.00640868
    H      2.96979338      0.65326086     -0.89179485
    H      3.06995933     -0.87338515      0.00510343
    H      2.97513710      0.67662015      0.86224954
    C     -2.71011022     -0.11114223      1.49065144
    O     -2.16166797     -1.16923936      1.17434787
    N     -2.19909762      1.09752247      1.19334215
    H     -1.31604422      1.16923936      0.68457931
    H     -2.68056431      1.92999523      1.47223994
    C     -4.01499681     -0.12103350      2.24964601
    H     -4.40948437      0.87290689      2.44369536
    H     -3.86046877     -0.63697813      3.19412363
    H     -4.74196503     -0.69256089      1.67845432
 
 
 
