#p b3lyp 6-311+g(3df,2p) scf=tight nosymm

21_AcNH2-AcNH2_2_y_+30

0    1
    C     -2.98067391      0.11101601      0.00178048
    O     -2.34762476      1.16920731     -0.00000000
    N     -2.38937276     -1.09756879      0.00089306
    H     -1.37022958     -1.16920731     -0.00000000
    H     -2.94569583     -1.93010664      0.00321407
    C     -4.49021746      0.12091542      0.00640868
    H     -4.82872055      0.65326086      0.89179485
    H     -4.92888650     -0.87338515     -0.00510343
    H     -4.83406427      0.67662015     -0.86224954
    C      1.06550426     -0.11114223     -0.56118786
    O      0.51706201     -1.16923936     -0.24488428
    N      0.55449166      1.09752247     -0.26387857
    H     -0.32856174      1.16923936      0.24488428
    H      1.03595835      1.92999523     -0.54277635
    C      2.37039085     -0.12103350     -1.32018242
    H      2.76487841      0.87290689     -1.51423177
    H      2.21586281     -0.63697813     -2.26466005
    H      3.09735907     -0.69256089     -0.74899073
 
 
 
