#p b3lyp 6-311+g(3df,2p) scf=tight nosymm

21_AcNH2-AcNH2_1_y_-30

0    1
    C      1.12174674      0.11101601     -0.00178048
    O      0.48869759      1.16920731      0.00000000
    N      0.53044559     -1.09756879     -0.00089306
    H     -0.48869759     -1.16920731     -0.00000000
    H      1.08676866     -1.93010664     -0.00321407
    C      2.63129029      0.12091542     -0.00640868
    H      2.96979338      0.65326086     -0.89179485
    H      3.06995933     -0.87338515      0.00510343
    H      2.97513710      0.67662015      0.86224954
    C     -2.71092308     -0.11114223     -1.49000041
    O     -2.16277502     -1.16923936     -1.17318727
    N     -2.19793938      1.09752247     -1.19610516
    H     -1.31581113      1.16923936     -0.68573990
    H     -2.68020530      1.92999523     -1.47361865
    C     -4.02067495     -0.12103350     -2.24056805
    H     -4.38597040      0.87290689     -2.48517963
    H     -4.76135255     -0.63697813     -1.63450403
    H     -3.88949254     -0.69256089     -3.15573685
 
 
 
