#p b3lyp 6-311+g(3df,2p) scf=tight nosymm

21_AcNH2-AcNH2_2_z_-30

0    1
    C     -2.98067391      0.11101601      0.00178048
    O     -2.34762476      1.16920731     -0.00000000
    N     -2.38937276     -1.09756879      0.00089306
    H     -1.37022958     -1.16920731     -0.00000000
    H     -2.94569583     -1.93010664      0.00321407
    C     -4.49021746      0.12091542      0.00640868
    H     -4.82872055      0.65326086      0.89179485
    H     -4.92888650     -0.87338515     -0.00510343
    H     -4.83406427      0.67662015     -0.86224954
    C      1.54751029     -0.65711433     -0.00037588
    O      0.47016657     -1.25689497     -0.00067007
    N      1.63984449      0.68522227      0.00159522
    H      0.79311211      1.25689497      0.00067007
    H      2.53794717      1.12795919      0.00079600
    C      2.84988388     -1.42046153     -0.00524116
    H      3.72674558     -0.77901437      0.02395096
    H      2.88498634     -2.03648949     -0.90044680
    H      2.86201309     -2.08740733      0.85290947
 
 
 
