#p b3lyp 6-311+g(3df,2p) scf=tight nosymm

22_AcOH-Uracil_1_z_+30

0    1
    C      1.08517559      0.07908336      0.00143423
    O      0.41375856      1.10237217     -0.00676747
    O      0.57897977     -1.14472990      0.00892873
    H     -0.41375856     -1.10237217      0.00676747
    C      2.58352513      0.07548138      0.00429758
    H      2.95434337      1.09313851     -0.00301400
    H      2.94198069     -0.45051022      0.88594306
    H      2.94549765     -0.46453293     -0.86736911
    N     -4.22238661     -2.36930239      0.00675252
    H     -4.07308839     -3.36916722      0.01093094
    C     -5.56305106     -1.94116343      0.00569113
    O     -6.46834608     -2.75604739      0.00941814
    C     -5.69539817     -0.49694285      0.00000000
    H     -6.68261073     -0.06829660     -0.00108317
    C     -4.58904204      0.27627074     -0.00379371
    H     -4.63468889      1.35516032     -0.00813048
    N     -3.32630325     -0.25033497     -0.00239814
    H     -2.49007239      0.34535913     -0.00510021
    C     -3.09075444     -1.59655594      0.00325836
    O     -1.95972372     -2.08334968      0.00510021
 
 
 
