#p b3lyp 6-311+g(3df,2p) scf=tight nosymm

23_AcNH2-Uracil_2_z_+30

0    1
    C     -2.92871784      0.15328925     -0.00451777
    O     -2.24978567      1.18524043      0.03140120
    N     -2.38702576     -1.07550946     -0.03773223
    H     -1.37413971     -1.18524043     -0.03140120
    H     -2.97440639     -1.88618679     -0.06629227
    C     -4.43329625      0.23105964     -0.00914343
    H     -4.75515477      0.72823300      0.90259774
    H     -4.91397645     -0.74089083     -0.07803337
    H     -4.74391712      0.84883291     -0.84764462
    N      2.86843117      1.22798974     -0.02944800
    H      3.72588116      0.69338312     -0.04718496
    C      3.01115746      2.62590409     -0.02511881
    O      4.12061243      3.13166792     -0.04178780
    C      1.74049910      3.32254255      0.00000000
    H      1.73952378      4.39873765      0.00513188
    C      0.59131195      2.61319204      0.01617063
    H     -0.38027794      3.08480129      0.03499534
    N      0.56662911      1.24687397      0.01003286
    H     -0.33169146      0.73733368      0.02133889
    C      1.70814270      0.49091960     -0.01398682
    O      1.70728735     -0.73733368     -0.02133889
 
 
 
