#p b3lyp 6-311+g(3df,2p) scf=tight nosymm

23_AcNH2-Uracil_2_z_-30

0    1
    C     -2.92871784      0.15328925     -0.00451777
    O     -2.24978567      1.18524043      0.03140120
    N     -2.38702576     -1.07550946     -0.03773223
    H     -1.37413971     -1.18524043     -0.03140120
    H     -2.97440639     -1.88618679     -0.06629227
    C     -4.43329625      0.23105964     -0.00914343
    H     -4.75515477      0.72823300      0.90259774
    H     -4.91397645     -0.74089083     -0.07803337
    H     -4.74391712      0.84883291     -0.84764462
    N      2.74139008     -1.27448890     -0.02944800
    H      2.70713216     -2.28436569     -0.04718496
    C      4.02338256     -0.69913631     -0.02511881
    O      5.01611437     -1.40707059     -0.04178780
    C      3.99135998      0.74960533      0.00000000
    H      4.92288462      1.28854753      0.00513188
    C      2.80245085      1.39015534      0.01617063
    H      2.72508150      2.46738149      0.03499534
    N      1.60684326      0.72837228      0.01003286
    H      0.71640815      1.25157057      0.02133889
    C      1.52292438     -0.63818468     -0.01398682
    O      0.45879815     -1.25157057     -0.02133889
 
 
 
