#p b3lyp 6-311+g(3df,2p) scf=tight nosymm

23_AcNH2-Uracil_2_y_-30

0    1
    C     -2.92871784      0.15328925     -0.00451777
    O     -2.24978567      1.18524043      0.03140120
    N     -2.38702576     -1.07550946     -0.03773223
    H     -1.37413971     -1.18524043     -0.03140120
    H     -2.97440639     -1.88618679     -0.06629227
    C     -4.43329625      0.23105964     -0.00914343
    H     -4.75515477      0.72823300      0.90259774
    H     -4.91397645     -0.74089083     -0.07803337
    H     -4.74391712      0.84883291     -0.84764462
    N      2.27733506     -0.02684630      1.22573661
    H      2.69779957     -0.91855421      1.44801103
    C      2.98752985      1.11241989      1.64076667
    O      4.04695773      0.99569674      2.23317996
    C      2.32362997      2.35105568      1.28646861
    H      2.78633869      3.28355563      1.55953939
    C      1.14649652      2.31133369      0.62552253
    H      0.61260455      3.20555423      0.33901675
    N      0.53942019      1.14040895      0.26793955
    H     -0.36061067      1.14829441     -0.23863842
    C      1.08022738     -0.08502353      0.55243920
    O      0.55141263     -1.14829441      0.23863842
 
 
 
