#p b3lyp 6-311+g(3df,2p) scf=tight nosymm

24_Benzene-Benzene_pi-pi_1_z_+30

0    1
    C     -0.34630624      1.16349320     -0.68356587
    H     -0.61996171      2.06501321     -1.21468843
    C     -0.59042937      1.06144469      0.68418760
    H     -1.05846904      1.88053799      1.21264496
    C     -0.24253927     -0.10174791      1.36799543
    H     -0.43456424     -0.18176247      2.42945217
    C      0.34713219     -1.16339311      0.68437984
    H      0.61709628     -2.06610972      1.21580333
    C      0.58905348     -1.06200411     -0.68466474
    H      1.04782936     -1.88534556     -1.21552612
    C      0.24429566      0.10264177     -1.36812391
    H      0.43369311      0.18248867     -2.43016870
    C     -4.58841741     -1.04086409     -0.68451463
    H     -5.27377952     -0.39435112     -1.21598751
    C     -4.74742331     -1.24984647      0.68451463
    H     -5.55676760     -0.76664795      1.21524987
    C     -3.86622584     -2.08568669      1.36807331
    H     -3.99044561     -2.24965129      2.43009282
    C     -2.82385393     -2.70850889      0.68366665
    H     -2.13587480     -3.35205104      1.21489601
    C     -2.66329725     -2.49785961     -0.68402174
    H     -1.84802909     -2.97266248     -1.21232918
    C     -3.54645030     -1.66484615     -1.36793506
    H     -3.42000342     -1.49932299     -2.42933806
 
 
 
