#p b3lyp 6-311+g(3df,2p) scf=tight nosymm

25_Pyridine-Pyridine_pi-pi_2_z_-30

0    1
    N     -3.98763681      0.93966783     -0.95722570
    C     -3.51035071     -0.26305683     -1.30407392
    H     -3.44262545     -0.45732981     -2.36770313
    C     -3.10953283     -1.23395748     -0.38838085
    H     -2.71955502     -2.17958755     -0.73672633
    C     -3.21292380     -0.95213448      0.96901696
    H     -2.91073086     -1.67930326      1.70985103
    C     -3.71028257      0.29090760      1.34806726
    H     -3.81232031      0.55977468      2.39014286
    C     -4.07805857      1.19549430      0.35587503
    H     -4.46755768      2.17061855      0.62265324
    N      0.11264552     -1.19123929     -0.68412761
    C      0.23131290     -1.15835661      0.65101849
    H      0.12672403     -2.10936390      1.15936979
    C      0.47839110      0.00282917      1.37797871
    H      0.56638632     -0.04120895      2.45456891
    C      0.60609689      1.20693541      0.69233591
    H      0.79185131      2.13109820      1.22188620
    C      0.48343814      1.19233537     -0.69233591
    H      0.56314419      2.10082495     -1.27198911
    C      0.24207705     -0.02382754     -1.32830226
    H      0.14429528     -0.06403156     -2.40646446
 
 
 
