#p b3lyp 6-311+g(3df,2p) scf=tight nosymm

25_Pyridine-Pyridine_pi-pi_1_y_+30

0    1
    N      0.38476820      0.93966783      0.95722570
    C     -0.09251789     -0.26305683      1.30407392
    H     -0.16024316     -0.45732981      2.36770313
    C     -0.49333577     -1.23395748      0.38838085
    H     -0.88331359     -2.17958755      0.73672633
    C     -0.38994480     -0.95213448     -0.96901696
    H     -0.69213775     -1.67930326     -1.70985103
    C      0.10741396      0.29090760     -1.34806726
    H      0.20945170      0.55977468     -2.39014286
    C      0.47518996      1.19549430     -0.35587503
    H      0.86468908      2.17061855     -0.62265324
    N     -3.69033845     -1.15424147      2.58554305
    C     -4.43267341     -1.06643055      1.47243641
    H     -5.02020565     -1.94232145      1.22465479
    C     -4.47865398      0.06272494      0.65956196
    H     -5.10201456      0.06858442     -0.22367993
    C     -3.71021862      1.16936442      1.00761771
    H     -3.71413536      2.06259008      0.39840703
    C     -2.93221066      1.09539105      2.15731589
    H     -2.30877607      1.92201913      2.46670163
    C     -2.95982065     -0.07851747      2.90760722
    H     -2.36481208     -0.16222606      3.80903333
 
 
 
