#p b3lyp 6-311+g(3df,2p) scf=tight nosymm

25_Pyridine-Pyridine_pi-pi_2_y_+30

0    1
    N     -3.98763681      0.93966783     -0.95722570
    C     -3.51035071     -0.26305683     -1.30407392
    H     -3.44262545     -0.45732981     -2.36770313
    C     -3.10953283     -1.23395748     -0.38838085
    H     -2.71955502     -2.17958755     -0.73672633
    C     -3.21292380     -0.95213448      0.96901696
    H     -2.91073086     -1.67930326      1.70985103
    C     -3.71028257      0.29090760      1.34806726
    H     -3.81232031      0.55977468      2.39014286
    C     -4.07805857      1.19549430      0.35587503
    H     -4.46755768      2.17061855      0.62265324
    N      0.56971773     -1.15424147     -0.78410875
    C      1.31205269     -1.06643055      0.32899789
    H      1.89958493     -1.94232145      0.57677952
    C      1.35803326      0.06272494      1.14187235
    H      1.98139384      0.06858442      2.02511424
    C      0.58959790      1.16936442      0.79381660
    H      0.59351464      2.06259008      1.40302727
    C     -0.18841006      1.09539105     -0.35588159
    H     -0.81184465      1.92201913     -0.66526732
    C     -0.16080007     -0.07851747     -1.10617292
    H     -0.75580864     -0.16222606     -2.00759903
 
 
 
