#p b3lyp 6-311+g(3df,2p) scf=tight nosymm

26_Uracil-Uracil_pi-pi_2_y_-30

0    1
    N     -3.08264681      0.23512302      0.91450899
    H     -2.85526786      0.51332645      1.86177709
    C     -3.12082026     -1.14224124      0.66270325
    O     -2.93431147     -1.94485242      1.56473787
    N     -3.35865447      0.83938717     -1.29214319
    H     -3.45362877     -2.50289334     -1.01191426
    C     -3.46055182     -0.47862572     -1.64219832
    H     -3.61032040     -0.66951374     -2.69425609
    C     -3.37317714     -1.46768142     -0.72877299
    H     -3.30682599      1.55709449     -1.99705275
    C     -3.12235767      1.26986533      0.00000000
    O     -2.95597949      2.43887142      0.29026084
    N      0.75160516      0.94351253     -0.07396034
    H      0.55742402      1.93077344     -0.19238664
    C      1.40820661      0.30686617     -1.13488051
    O      1.76058325      0.94049584     -2.11823234
    N      0.38445722     -0.99675650      1.11397387
    H      2.10772046     -1.68789434     -1.68085701
    C      1.05371511     -1.71047622      0.15857989
    H      1.12382139     -2.77304694      0.33668940
    C      1.58287721     -1.11946364     -0.93270510
    H     -0.10536352     -1.46593588      1.85871131
    C      0.15912780      0.36457855      1.03166225
    O     -0.50318875      0.97824141      1.84607183
 
 
 
