#p b3lyp 6-311+g(3df,2p) scf=tight nosymm

27_Benzene-Pyridine_pi-pi_1_y_-30

0    1
    C     -0.11587643      0.05192952     -1.38749749
    H     -0.20497929      0.09158447     -2.46489807
    C      0.43403345      1.12847653     -0.69417173
    H      0.77393720      2.00269571     -1.23307303
    C      0.55211829      1.07569563      0.69417173
    H      0.98413651      1.90871051      1.23236400
    C      0.11839162     -0.05269075      1.38724045
    H      0.21027354     -0.09438381      2.46425282
    C     -0.43663373     -1.12766463      0.69386470
    H     -0.78494012     -1.99840697      1.23208468
    C     -0.55156311     -1.07585566     -0.69361039
    H     -0.98402939     -1.90889689     -1.23069791
    N     -4.43520684     -1.02557627     -1.19757429
    C     -4.00128849     -1.15305021     -2.45939071
    H     -4.22424424     -2.09597227     -2.94404673
    C     -3.30704135     -0.15906311     -3.14385944
    H     -2.98630606     -0.32649653     -4.16252072
    C     -3.03860373      1.03936832     -2.49059316
    H     -2.49641267      1.83282309     -2.98614787
    C     -3.47938182      1.18836604     -1.18075272
    H     -3.28917091      2.09527214     -0.62498338
    C     -4.16799711      0.13521856     -0.58413742
    H     -4.52086398      0.22429908      0.43609568
 
 
 
