#p b3lyp 6-311+g(3df,2p) scf=tight nosymm

27_Benzene-Pyridine_pi-pi_2_z_+30

0    1
    C     -3.56421841      0.05192952      1.38749749
    H     -3.47511555      0.09158447      2.46489807
    C     -4.11412829      1.12847653      0.69417173
    H     -4.45403204      2.00269571      1.23307303
    C     -4.23221313      1.07569563     -0.69417173
    H     -4.66423135      1.90871051     -1.23236400
    C     -3.79848646     -0.05269075     -1.38724045
    H     -3.89036838     -0.09438381     -2.46425282
    C     -3.24346111     -1.12766463     -0.69386470
    H     -2.89515471     -1.99840697     -1.23208468
    C     -3.12853173     -1.07585566      0.69361039
    H     -2.69606545     -1.90889689      1.23069791
    N      1.44183067     -0.74813983     -0.90356288
    C      1.72651141     -0.73097355      0.40616137
    H      2.57505146     -1.32986133      0.71440792
    C      1.00521616      0.00034388      1.34605225
    H      1.28947467     -0.02887485      2.38860644
    C     -0.07820037      0.75866248      0.91452586
    H     -0.66698956      1.33492752      1.61478436
    C     -0.38929321      0.75110069     -0.44021827
    H     -1.22605963      1.31519833     -0.82642319
    C      0.39539999     -0.01192645     -1.30120993
    H      0.17373600     -0.03704289     -2.36119114
 
 
 
