#p b3lyp 6-311+g(3df,2p) scf=tight nosymm

27_Benzene-Pyridine_pi-pi_2_y_+30

0    1
    C     -3.56421841      0.05192952      1.38749749
    H     -3.47511555      0.09158447      2.46489807
    C     -4.11412829      1.12847653      0.69417173
    H     -4.45403204      2.00269571      1.23307303
    C     -4.23221313      1.07569563     -0.69417173
    H     -4.66423135      1.90871051     -1.23236400
    C     -3.79848646     -0.05269075     -1.38724045
    H     -3.89036838     -0.09438381     -2.46425282
    C     -3.24346111     -1.12766463     -0.69386470
    H     -2.89515471     -1.99840697     -1.23208468
    C     -3.12853173     -1.07585566      0.69361039
    H     -2.69606545     -1.90889689      1.23069791
    N      0.41642172     -1.02557627     -0.92254368
    C      1.29222761     -1.15305021      0.08414884
    H      1.82342991     -2.09597227      0.13339151
    C      1.53787135     -0.15906311      1.02761886
    H      2.25969025     -0.32649653      1.81471441
    C      0.83790734      1.03936832      0.93345952
    H      0.99597479      1.83282309      1.65078811
    C     -0.07605870      1.18836604     -0.10318572
    H     -0.65247453      2.09527214     -0.21634291
    C     -0.24843507      0.13521856     -0.99785170
    H     -0.95554942      0.22429908     -1.81355993
 
 
 
