#p b3lyp 6-311+g(3df,2p) scf=tight nosymm

29_Pyridine-Uracil_pi-pi_2_z_+30

0    1
    N     -2.96296007     -1.34610766      0.00026841
    C     -3.25176773     -0.69634675      1.13751040
    H     -3.17378745     -1.27413960      2.04975780
    C     -3.62139374      0.64544970      1.18917528
    H     -3.83270501      1.10946700      2.14194627
    C     -3.70148792      1.36320864     -0.00000000
    H     -3.98102947      2.40778569     -0.00040223
    C     -3.40945181      0.70487490     -1.19018146
    H     -3.44535297      1.21930706     -2.13942027
    C     -3.04916539     -0.63916464     -1.13713798
    H     -2.81721908     -1.17699328     -2.04805940
    N     -0.08819044      0.63420792      0.32323090
    H     -0.78416070      1.26966830      0.68823280
    C      0.09096259      0.65107686     -1.06606495
    O     -0.55309820      1.41741788     -1.76398292
    C      1.07502088     -0.30960656     -1.52881754
    H      1.29010473     -0.36495279     -2.58195314
    C      1.68689422     -1.12044272     -0.64103522
    H      2.41123850     -1.86410278     -0.93770391
    N      1.42718700     -1.05346048      0.69945631
    H      1.84362107     -1.70681618      1.34143737
    C      0.50590364     -0.18698712      1.25775033
    O      0.25513160     -0.15727157      2.44753846
 
 
 
