#p b3lyp 6-311+g(3df,2p) scf=tight nosymm

30_Benzene-Ethene_1_z_+30

0    1
    C      0.00075617      0.69653429     -1.20686639
    H      0.00262252      1.23747502     -2.14352141
    C     -0.00160968      1.39322192     -0.00003961
    H     -0.00061755      2.47482319      0.00000000
    C      0.00047085      0.69649081      1.20685572
    H      0.00237651      1.23746201      2.14350205
    C      0.00076010     -0.69653164      1.20686690
    H      0.00262974     -1.23747621      2.14352557
    C     -0.00159672     -1.39322212      0.00003887
    H     -0.00059394     -2.47482163      0.00000161
    C      0.00047993     -0.69649350     -1.20685639
    H      0.00239289     -1.23745961     -2.14349708
    C     -4.11337854     -1.14228443      0.03773332
    H     -4.36390978     -0.69941782      0.99096629
    H     -4.41615090     -0.60886578     -0.85184404
    C     -3.44835651     -2.29414893     -0.03773335
    H     -3.13779289     -2.82306708      0.85184433
    H     -3.19009357     -2.73255430     -0.99096611
 
 
 
