#p b3lyp 6-311+g(3df,2p) scf=tight nosymm

31_Uracil-Ethene_2_y_+30

0    1
    N     -3.39321271      0.94121396      0.00000000
    H     -3.41186411      1.95154511      0.02185672
    C     -3.43573454      0.35201095     -1.27142320
    O     -3.49569542      1.04564034     -2.27259365
    C     -3.40064108     -1.09889367     -1.23436781
    H     -3.44847538     -1.64180999     -2.16232678
    C     -3.30180933     -1.73473003     -0.04954910
    H     -3.26418957     -2.81096561      0.02981735
    N     -3.23651635     -1.05320961      1.13515832
    H     -3.13302918     -1.53792555      2.01076727
    C     -3.25812877      0.32714799      1.22682079
    O     -3.17296597      0.92421795      2.28242265
    C      0.75441817      0.03548903      0.55553891
    H      0.68822297      0.88049592      1.22629381
    H      1.44888350     -0.75018719      0.81850779
    C      0.01941641     -0.03556274     -0.55482803
    H     -0.66952458      0.75110986     -0.82866080
    H      0.09415279     -0.88054032     -1.22461175
 
 
 
