#p b3lyp 6-311+g(3df,2p) scf=tight nosymm

32_Uracil-Ethyne_1_z_-30

0    1
    N      0.05660286      0.29629730      0.89552659
    H      0.01923738      0.62285489      1.85131715
    C      0.19374019     -1.08835444      0.72548145
    O      0.31137807     -1.82314913      1.69106922
    C      0.18135984     -1.50132634     -0.66720678
    H      0.30659272     -2.54492649     -0.89860454
    C      0.01239182     -0.57958911     -1.63641769
    H     -0.01022077     -0.83638319     -2.68498824
    N     -0.14562760      0.74911566     -1.35053172
    H     -0.32242352      1.42045836     -2.07876447
    C     -0.17946117      1.25534799     -0.06365567
    O     -0.38917970      2.42900525      0.17985030
    C     -3.47770965      2.15582103     -0.00658222
    H     -2.89216282      3.04300620      0.00000000
    C     -4.12496892      1.13030812      0.00452960
    H     -4.69775899      0.23620512      0.02445919
 
 
 
