#p b3lyp 6-311+g(3df,2p) scf=tight nosymm

33_Pyridine-Ethene_2_z_+30

0    1
    N     -3.29324806     -1.39166944      0.00000363
    C     -3.33899792     -0.69016765      1.14009793
    H     -3.30002141     -1.26932654      2.05474786
    C     -3.43691259      0.69807373      1.19314698
    H     -3.47346457      1.20200795      2.14865783
    C     -3.49074620      1.40966247     -0.00001127
    H     -3.56880706      2.48808624     -0.00000000
    C     -3.43694794      0.69805852     -1.19314250
    H     -3.47349182      1.20198312     -2.14865169
    C     -3.33908242     -0.69017667     -1.14009778
    H     -3.30021848     -1.26934207     -2.05472532
    C      0.07195521      0.00034638     -0.66634423
    H      0.39717867     -0.86473825     -1.22595391
    H     -0.25468358      0.86368845     -1.22862471
    C      0.07227352     -0.00005070      0.66634302
    H      0.39774956     -0.86545684      1.22530151
    H     -0.25409279      0.86298325      1.22929151
 
 
 
