#p b3lyp 6-311+g(3df,2p) scf=tight nosymm

35_Neopentane-Pentane_2_y_+30

0    1
    C     -4.59613301      0.33317179     -2.53279144
    H     -5.54327551      0.87146019     -2.56636702
    H     -3.79546176      1.07231283     -2.56185371
    H     -4.52351617     -0.27342503     -3.43414516
    C     -4.50308327     -0.51641989     -1.27222649
    H     -3.56187238     -1.07148432     -1.26995813
    H     -5.29934000     -1.26427615     -1.27093556
    C     -4.59761883      0.31503147     -0.00000000
    H     -3.80386963      1.06860544      0.00010859
    H     -5.54153070      0.86825773     -0.00013796
    C     -4.50342682     -0.51633499      1.27233304
    H     -3.56239110     -1.07170803      1.27021694
    H     -5.29991144     -1.26395633      1.27110571
    C     -4.59613757      0.33355815      2.53269396
    H     -5.54296382      0.87242927      2.56609306
    H     -4.52387795     -0.27280919      3.43423360
    H     -3.79502756      1.07223622      2.56153158
    C      0.42300376      0.00013603     -0.00025731
    C      1.73507448      0.18339200     -0.75796029
    H      1.67990404     -0.27474514     -1.74643139
    H      1.96358520      1.24211251     -0.88824167
    H      2.56327322     -0.27723383     -0.21751706
    C     -0.71268577      0.65600362     -0.78147784
    H     -1.66258944      0.53603413     -0.25903719
    H     -0.52976054      1.72392128     -0.91016185
    H     -0.81328097      0.20838131     -1.77142379
    C      0.53417588      0.65038327      1.37635701
    H     -0.39356049      0.53141164      1.93752189
    H      0.74065953      1.71795143      1.28628720
    H      1.33974211      0.19783203      1.95652844
    C      0.13349669     -1.48976746      0.16315377
    H      0.93209744     -1.98229457      0.71992241
    H     -0.80120945     -1.64695952      0.70343813
    H      0.04782003     -1.97816848     -0.80868453
 
 
 
