#p b3lyp 6-311+g(3df,2p) scf=tight nosymm

36_Neopentane-Neopentane_1_y_-30

0    1
    C     -0.00057417      0.00000085      0.00002468
    C     -0.50898701      1.43939132      0.00000000
    H     -0.15844456      1.97520031     -0.88334658
    H     -1.59953224      1.46835511      0.00079969
    H     -0.15707859      1.97559265      0.88255257
    C     -0.50818947     -0.71998623     -1.24673382
    H     -0.15711250     -1.75270687     -1.26899887
    H     -1.59872386     -0.73430220     -1.27250294
    H     -0.15630502     -0.22362316     -2.15230228
    C     -0.50829199     -0.71999299      1.24667256
    H     -0.15580238     -1.75221633      1.26975632
    H     -1.59882185     -0.73583143      1.27144830
    H     -0.15793150     -0.22267437      2.15230581
    C      1.52581518      0.00058748      0.00004795
    H      1.91399138      0.50986887      0.88324855
    H      1.91449560     -1.01872864     -0.00062685
    H      1.91397586      0.51106100     -0.88246923
    C     -5.11897430      0.00000851     -2.65211413
    C     -4.67846217     -1.43963550     -2.39956340
    H     -3.73348699     -1.46907464     -1.85521601
    H     -5.42352558     -1.97613273     -1.81023971
    H     -4.54210149     -1.97481549     -3.34043872
    C     -5.30320200      0.71826102     -1.31775239
    H     -5.61791327      1.75130314     -1.47279324
    H     -6.06125390      0.22135125     -0.71054341
    H     -4.37197473      0.73148378     -0.74960547
    C     -6.44058114      0.00016540     -3.41576136
    H     -6.77802826      1.01965361     -3.60760245
    H     -7.21787044     -0.51186303     -2.84681335
    H     -6.33455331     -0.50715611     -4.37567347
    C     -4.05578517      0.72120207     -3.47668349
    H     -3.90562721      0.22476054     -4.43651841
    H     -4.34987889      1.75345372     -3.67219563
    H     -3.09924464      0.73701809     -2.95233626
 
 
 
