#p b3lyp 6-311+g(3df,2p) scf=tight nosymm

37_Cyclopentane-Neopentane_2_z_-30

0    1
    C     -4.95136283     -0.37923179     -1.18716033
    H     -6.03896599     -0.38823650     -1.28081663
    H     -4.53583099     -0.70230647     -2.14066723
    C     -4.47003371      1.02087418     -0.77242971
    H     -5.10216650      1.80659477     -1.18170429
    H     -3.46337463      1.19524576     -1.15156723
    C     -4.46491449      1.01831468      0.77747509
    H     -5.12577555      1.77801029      1.19044444
    H     -3.46477988      1.23288953      1.15262285
    C     -4.89775812     -0.39943494      1.19426516
    H     -5.97762468     -0.42931535      1.34974876
    H     -4.42428480     -0.72912136      2.11799959
    C     -4.54418262     -1.26729972     -0.01277628
    H     -5.04527188     -2.23430943     -0.00882383
    H     -3.46787041     -1.44868896     -0.03977598
    C      0.42006687      0.00039917     -0.00000533
    C      1.59680903     -0.97158866      0.00979063
    H      2.22643444     -0.82759725     -0.86932988
    H      2.21478074     -0.82402423      0.89655471
    H      1.24671424     -2.00477824      0.00955145
    C      0.94461087      1.43405556      0.00000000
    H      0.12165375      2.15021416     -0.00623275
    H      1.55165200      1.62545959      0.88608774
    H      1.56187575      1.62186561     -0.87977875
    C     -0.43602908     -0.22825789      1.24340027
    H     -1.28178406      0.46014241      1.26849124
    H      0.15038435     -0.07416540      2.15049656
    H     -0.82859035     -1.24612831      1.26359427
    C     -0.41991354     -0.23441901     -1.25318754
    H     -0.81355596     -1.25187125     -1.27263591
    H     -1.26436924      0.45482846     -1.29330613
    H      0.17837111     -0.08619971     -2.15346906
 
 
 
