#p b3lyp 6-311+g(3df,2p) scf=tight nosymm

37_Cyclopentane-Neopentane_2_y_-30

0    1
    C     -4.95136283     -0.37923179     -1.18716033
    H     -6.03896599     -0.38823650     -1.28081663
    H     -4.53583099     -0.70230647     -2.14066723
    C     -4.47003371      1.02087418     -0.77242971
    H     -5.10216650      1.80659477     -1.18170429
    H     -3.46337463      1.19524576     -1.15156723
    C     -4.46491449      1.01831468      0.77747509
    H     -5.12577555      1.77801029      1.19044444
    H     -3.46477988      1.23288953      1.15262285
    C     -4.89775812     -0.39943494      1.19426516
    H     -5.97762468     -0.42931535      1.34974876
    H     -4.42428480     -0.72912136      2.11799959
    C     -4.54418262     -1.26729972     -0.01277628
    H     -5.04527188     -2.23430943     -0.00882383
    H     -3.46787041     -1.44868896     -0.03977598
    C      0.64096458     -0.00024696     -0.00061766
    C      1.93950629     -0.25364204      0.76040715
    H      2.78893549      0.18587089      0.23570441
    H      1.89570576      0.18313837      1.75906586
    H      2.12443900     -1.32345785      0.86690191
    C      0.41357848      1.50360790     -0.13189293
    H     -0.51062875      1.71234087     -0.67268118
    H      0.34293509      1.97288921      0.85048708
    H      1.23509238      1.97488861     -0.67347266
    C     -0.52379877     -0.62631776      0.76266702
    H     -1.46874656     -0.45302310      0.24607371
    H     -0.60426085     -0.19966304      1.76363679
    H     -0.38756590     -1.70410003      0.86463913
    C      0.73924963     -0.62359568     -1.39092293
    H      0.89431174     -1.70155638     -1.32385483
    H     -0.17248576     -0.44891771     -1.96363856
    H      1.57392303     -0.19609167     -1.94857957
 
 
 
