#p b3lyp 6-311+g(3df,2p) scf=tight nosymm

38_Cyclopentane-Cyclopentane_1_y_+30

0    1
    C     -0.16350750      1.28579828     -0.00000000
    H      0.69900153      1.94562917     -0.08441598
    H     -1.04307347      1.92225070      0.07989448
    C     -0.23597704      0.33915948     -1.22612961
    H      0.62111032      0.50539454     -1.87799770
    H     -1.12910482      0.50528862     -1.82613393
    C     -0.18175240     -1.08437906     -0.65047495
    H      0.26863337     -1.80028525     -1.33624028
    H     -1.18988650     -1.43577636     -0.42124062
    C      0.59408914     -0.91372978      0.65406377
    H      1.65370782     -0.75979591      0.43637061
    H      0.50914904     -1.76806155      1.32415239
    C     -0.01160612      0.36731027      1.22610685
    H      0.58808357      0.81593487      2.01632047
    H     -0.99246936      0.13902078      1.64679706
    C     -3.57674230     -0.61749216      2.98513702
    H     -2.71533168     -1.03609552      2.46066121
    H     -3.49189391     -0.89777411      4.03390715
    C     -3.63411877      0.90384861      2.77785711
    H     -2.64166971      1.34643361      2.71099073
    H     -4.13520901      1.37202465      3.62456583
    C     -4.46373322      1.11578682      1.48498474
    H     -3.89444730      1.62800266      0.71126702
    H     -5.33787207      1.73063352      1.69525829
    C     -4.89919728     -0.29059667      1.03489611
    H     -4.17602273     -0.69756230      0.32593341
    H     -5.87319656     -0.29396256      0.54846587
    C     -4.85652855     -1.11836452      2.31872314
    H     -4.86041226     -2.19268514      2.13982458
    H     -5.71831391     -0.87777191      2.94586344
 
 
 
