#p b3lyp 6-311+g(3df,2p) scf=tight nosymm

38_Cyclopentane-Cyclopentane_1_z_-30

0    1
    C     -0.16350750      1.28579828     -0.00000000
    H      0.69900153      1.94562917     -0.08441598
    H     -1.04307347      1.92225070      0.07989448
    C     -0.23597704      0.33915948     -1.22612961
    H      0.62111032      0.50539454     -1.87799770
    H     -1.12910482      0.50528862     -1.82613393
    C     -0.18175240     -1.08437906     -0.65047495
    H      0.26863337     -1.80028525     -1.33624028
    H     -1.18988650     -1.43577636     -0.42124062
    C      0.59408914     -0.91372978      0.65406377
    H      1.65370782     -0.75979591      0.43637061
    H      0.50914904     -1.76806155      1.32415239
    C     -0.01160612      0.36731027      1.22610685
    H      0.58808357      0.81593487      2.01632047
    H     -0.99246936      0.13902078      1.64679706
    C     -4.53682772      1.49464640      1.10357816
    H     -3.87296675      0.62800456      1.08007410
    H     -5.06746319      1.47736721      2.05426393
    C     -3.72943486      2.78519091      0.89538025
    H     -2.73485157      2.72202112      1.33369680
    H     -4.23780014      3.61929889      1.37810640
    C     -3.68584642      3.00475029     -0.63908728
    H     -2.66774447      3.00840476     -1.02450353
    H     -4.12507833      3.96830477     -0.89405447
    C     -4.52074212      1.86282578     -1.24660750
    H     -3.87485417      1.01999876     -1.49899994
    H     -5.04229406      2.16005733     -2.15486809
    C     -5.45853791      1.44843844     -0.11344631
    H     -5.92114566      0.47500655     -0.27031886
    H     -6.25614034      2.18674684     -0.00121957
 
 
 
