#p b3lyp 6-311+g(3df,2p) scf=tight nosymm

38_Cyclopentane-Cyclopentane_2_z_+30

0    1
    C     -4.07694610      1.28579828      0.00000000
    H     -4.93945513      1.94562917      0.08441598
    H     -3.19738013      1.92225070     -0.07989448
    C     -4.00447656      0.33915948      1.22612961
    H     -4.86156392      0.50539454      1.87799770
    H     -3.11134878      0.50528862      1.82613393
    C     -4.05870120     -1.08437906      0.65047495
    H     -4.50908697     -1.80028525      1.33624028
    H     -3.05056710     -1.43577636      0.42124062
    C     -4.83454274     -0.91372978     -0.65406377
    H     -5.89416142     -0.75979591     -0.43637061
    H     -4.74960264     -1.76806155     -1.32415239
    C     -4.22884748      0.36731027     -1.22610685
    H     -4.82853717      0.81593487     -2.01632047
    H     -3.24798424      0.13902078     -1.64679706
    C      0.80957933     -0.62558040     -1.10357816
    H      0.14571835     -1.49222224     -1.08007410
    H      1.34021480     -0.64285958     -2.05426393
    C      0.00218646      0.66496411     -0.89538025
    H     -0.99239683      0.60179432     -1.33369680
    H      0.51055175      1.49907209     -1.37810640
    C     -0.04140197      0.88452349      0.63908728
    H     -1.05950392      0.88817796      1.02450353
    H      0.39782994      1.84807797      0.89405447
    C      0.79349373     -0.25740102      1.24660750
    H      0.14760578     -1.10022804      1.49899994
    H      1.31504567      0.03983053      2.15486809
    C      1.73128951     -0.67178836      0.11344631
    H      2.19389726     -1.64522025      0.27031886
    H      2.52889195      0.06652004      0.00121957
 
 
 
