#p b3lyp 6-311+g(3df,2p) scf=tight nosymm

39_Benzene-Cyclopentane_2_z_-30

0    1
    C     -3.50482014     -1.32303806      0.00017976
    H     -3.16675965     -2.35053745      0.00036914
    C     -3.61502493     -0.62556641      1.20182239
    H     -3.36175603     -1.11159820      2.13440044
    C     -4.05265127      0.69774771      1.20166175
    H     -4.13738389      1.23942759      2.13393124
    C     -4.38091278      1.32314805     -0.00000161
    H     -4.71947906      2.35020793      0.00000000
    C     -4.27138685      0.62540360     -1.20186364
    H     -4.52553541      1.11089111     -2.13420885
    C     -3.83286598     -0.69760281     -1.20183382
    H     -3.74806276     -1.23948803     -2.13407283
    C      0.70617640      1.26060056     -0.09912133
    H     -0.29180113      1.64934932     -0.31043709
    H      1.39631481      2.10285696     -0.06398498
    C      0.68673715      0.45009500      1.19963228
    H      0.08442854      0.91889300      1.97614653
    H      1.70342440      0.35827074      1.58450251
    C      0.14991865     -0.94254813      0.79274324
    H     -0.86573962     -1.09448509      1.15465180
    H      0.76292083     -1.73417121      1.22104515
    C      0.19229500     -0.97567142     -0.75203302
    H     -0.80982269     -0.81766982     -1.15210603
    H      0.55614865     -1.92506460     -1.14155879
    C      1.07482675      0.21191313     -1.14572558
    H      0.90946573      0.54283065     -2.17032204
    H      2.13010338     -0.05311117     -1.04426206
 
 
 
