#p b3lyp 6-311+g(3df,2p) scf=tight nosymm

39_Benzene-Cyclopentane_2_z_+30

0    1
    C     -3.50482014     -1.32303806      0.00017976
    H     -3.16675965     -2.35053745      0.00036914
    C     -3.61502493     -0.62556641      1.20182239
    H     -3.36175603     -1.11159820      2.13440044
    C     -4.05265127      0.69774771      1.20166175
    H     -4.13738389      1.23942759      2.13393124
    C     -4.38091278      1.32314805     -0.00000161
    H     -4.71947906      2.35020793      0.00000000
    C     -4.27138685      0.62540360     -1.20186364
    H     -4.52553541      1.11089111     -2.13420885
    C     -3.83286598     -0.69760281     -1.20183382
    H     -3.74806276     -1.23948803     -2.13407283
    C     -0.42080526      0.75572211     -0.09912133
    H     -1.25646033      0.08582260     -0.31043709
    H     -0.80515149      1.77452770     -0.06398498
    C      0.27139352      0.33363444      1.19963228
    H     -0.43575176      0.04641889      1.97614653
    H      0.85925929      1.16819930      1.58450251
    C      1.20904860     -0.82758558      0.79274324
    H      0.83280073     -1.78313992      1.15465180
    H      2.20111538     -0.69252166      1.22104515
    C      1.25892238     -0.80744823     -0.75203302
    H      0.62103014     -1.59630681     -1.15210603
    H      2.26304783     -0.96703831     -1.14155879
    C      0.67170987      0.55063896     -1.14572558
    H      0.30244638      0.57289088     -2.17032204
    H      1.42886596      1.33202318     -1.04426206
 
 
 
