#p b3lyp 6-311+g(3df,2p) scf=tight nosymm

40_Benzene-Neopentane_2_z_+30

0    1
    C     -2.73866046     -1.39144625     -0.00001072
    H     -2.80308137     -2.47120831     -0.00003659
    C     -2.69677587     -0.69569263      1.20721012
    H     -2.72781200     -1.23545287      2.14394710
    C     -2.61518147      0.69565717      1.20711847
    H     -2.58215051      1.23535337      2.14369223
    C     -2.57537289      1.39135101      0.00001072
    H     -2.51042335      2.47080820     -0.00000000
    C     -2.61668339      0.69575377     -1.20712437
    H     -2.58371720      1.23543387     -2.14370232
    C     -2.69838555     -0.69559290     -1.20720015
    H     -2.73038770     -1.23529390     -2.14394887
    C      2.07500203     -0.49148284     -0.00292919
    C      1.98402509     -1.37075270      1.24173856
    H      2.79412188     -2.10171275      1.26169313
    H      2.05083074     -0.76711482      2.14836479
    H      1.03566273     -1.90924399      1.26326049
    C      3.40617586      0.25493044     -0.00342923
    H      3.49386970      0.89120871     -0.88536073
    H      3.49614583      0.88834043      0.88034824
    H      4.24450169     -0.44349382     -0.00565987
    C      0.92410568      0.51148740     -0.00017438
    H      0.96815045      1.15283753     -0.88223988
    H      0.96997268      1.15012076      0.88375609
    H     -0.03921889      0.00000000      0.00000000
    C      1.98110006     -1.36705419     -1.24999002
    H      1.03258691     -1.90533179     -1.27094451
    H      2.04597861     -0.76077184     -2.15499903
    H      2.79097218     -2.09813386     -1.27386895
 
 
 
