#p b3lyp 6-311+g(3df,2p) scf=tight nosymm

40_Benzene-Neopentane_1_z_+30

0    1
    C      0.08186219     -1.39144625      0.00001072
    H      0.14628310     -2.47120831      0.00003659
    C      0.03997760     -0.69569263     -1.20721012
    H      0.07101373     -1.23545287     -2.14394710
    C     -0.04161680      0.69565717     -1.20711847
    H     -0.07464775      1.23535337     -2.14369223
    C     -0.08142538      1.39135101     -0.00001072
    H     -0.14637492      2.47080820     -0.00000000
    C     -0.04011488      0.69575377      1.20712437
    H     -0.07308107      1.23543387      2.14370232
    C      0.04158728     -0.69559290      1.20720015
    H      0.07358943     -1.23529390      2.14394887
    C     -3.68564633     -3.40510958      0.00292919
    C     -2.87868781     -3.76595617     -1.24173856
    H     -2.65070624     -4.83300060     -1.26169313
    H     -3.43485638     -3.52199262     -2.14836479
    H     -1.93815950     -3.21389592     -1.26326049
    C     -4.99764610     -4.18473330      0.00342923
    H     -5.59252616     -3.94253926      0.88536073
    H     -5.59118023     -3.94594458     -0.88034824
    H     -4.81195586     -5.25995690      0.00565987
    C     -3.97879586     -1.90691899      0.00017438
    H     -4.55624374     -1.62438781      0.88223988
    H     -4.55480206     -1.62732429     -0.88375609
    H     -3.05417249     -1.32839913     -0.00000000
    C     -2.88042831     -3.76157377      1.24999002
    H     -1.94000965     -3.20927609      1.27094451
    H     -3.43792350     -3.51461906      2.15499903
    H     -2.65223080     -4.82848343      1.27386895
 
 
 
