#p b3lyp 6-311+g(3df,2p) scf=tight nosymm

41_Uracil-Pentane_1_y_+30

0    1
    N     -0.02626177     -0.46295546     -0.82137178
    H     -0.08409424     -0.97419805     -1.69176847
    C      0.29792941      0.89771750     -0.92697886
    O      0.49855225      1.40288804     -2.01795594
    C      0.35300983      1.57648789      0.35609276
    H      0.59981200      2.62384780      0.37730821
    C      0.09390943      0.89030199      1.48790978
    H      0.12008192      1.35045266      2.46456299
    N     -0.22383138     -0.44139781      1.47115029
    H     -0.43588013     -0.93712848      2.32114797
    C     -0.31339167     -1.19360471      0.31245878
    O     -0.61609527     -2.37082270      0.30745205
    C     -2.71892206      0.36349311      4.04387484
    H     -1.82307161      0.82982468      3.63136630
    H     -3.37073526      1.16626913      4.38833564
    H     -2.42495222     -0.22341270      4.91327687
    C     -3.41711706     -0.48901230      2.99217519
    H     -4.31167856     -0.94312489      3.42426142
    H     -2.77233531     -1.31704765      2.68869957
    C     -3.81044817      0.31440315      1.75945283
    H     -4.47855497      1.12899697      2.05548845
    H     -2.92061843      0.79462498      1.33945875
    C     -4.48596857     -0.52681449      0.68463307
    H     -5.38658111     -0.98196241      1.10351858
    H     -3.82635536     -1.35383121      0.41154626
    C     -4.84760642      0.28706182     -0.55130104
    H     -3.96223878      0.73959042     -0.99879792
    H     -5.32850336     -0.32821311     -1.31052662
    H     -5.53361235      1.09444161     -0.29470459
 
 
 
