#p b3lyp 6-311+g(3df,2p) scf=tight nosymm

41_Uracil-Pentane_1_y_-30

0    1
    N     -0.02626177     -0.46295546     -0.82137178
    H     -0.08409424     -0.97419805     -1.69176847
    C      0.29792941      0.89771750     -0.92697886
    O      0.49855225      1.40288804     -2.01795594
    C      0.35300983      1.57648789      0.35609276
    H      0.59981200      2.62384780      0.37730821
    C      0.09390943      0.89030199      1.48790978
    H      0.12008192      1.35045266      2.46456299
    N     -0.22383138     -0.44139781      1.47115029
    H     -0.43588013     -0.93712848      2.32114797
    C     -0.31339167     -1.19360471      0.31245878
    O     -0.61609527     -2.37082270      0.30745205
    C     -5.18831992      0.36349311      0.32804753
    H     -4.38315182      0.82982468      0.89762250
    H     -5.81253833      1.16626913     -0.06420886
    H     -5.79425924     -0.22341270      1.01733389
    C     -4.62661880     -0.48901230     -0.80245690
    H     -5.44809720     -0.94312489     -1.36112677
    H     -4.04141034     -1.31704765     -0.39579734
    C     -3.75571548      0.31440315     -1.75945283
    H     -4.34614325      1.12899697     -2.19003247
    H     -2.94707506      0.79462498     -1.19883470
    C     -3.16265446     -0.52681449     -2.88188052
    H     -3.97572622     -0.98196241     -3.45239111
    H     -2.59634774     -1.35383121     -2.44718213
    C     -2.27312305      0.28706182     -3.81303515
    H     -1.44289556      0.73959042     -3.27003272
    H     -1.85606288     -0.32821311     -4.60911690
    H     -2.83834506      1.09444161     -4.27883548
 
 
 
