#p b3lyp 6-311+g(3df,2p) scf=tight nosymm

41_Uracil-Pentane_2_z_-30

0    1
    N     -3.54311291     -0.46295546      0.82137178
    H     -3.48528043     -0.97419805      1.69176847
    C     -3.86730408      0.89771750      0.92697886
    O     -4.06792693      1.40288804      2.01795594
    C     -3.92238451      1.57648789     -0.35609276
    H     -4.16918668      2.62384780     -0.37730821
    C     -3.66328410      0.89030199     -1.48790978
    H     -3.68945659      1.35045266     -2.46456299
    N     -3.34554330     -0.44139781     -1.47115029
    H     -3.13349454     -0.93712848     -2.32114797
    C     -3.25598301     -1.19360471     -0.31245878
    O     -2.95327941     -2.37082270     -0.30745205
    C      0.80203320      0.24156795     -2.52413056
    H      0.18468971      1.13646469     -2.61481290
    H      1.84143702      0.56843378     -2.49653576
    H      0.66456504     -0.35676522     -3.42403972
    C      0.44402744     -0.53612578     -1.26423444
    H      1.07499109     -1.42477687     -1.19115134
    H     -0.58498535     -0.89815784     -1.32380772
    C      0.60694906      0.29751563      0.00000000
    H      1.64351325      0.63966693      0.07767902
    H     -0.00217511      1.20370603     -0.08118933
    C      0.22756993     -0.45480419      1.26858141
    H      0.85683812     -1.34367190      1.35612219
    H     -0.79889840     -0.81712907      1.17527492
    C      0.37056130      0.40242311      2.51975067
    H     -0.26097197      1.28957403      2.46461052
    H      0.09484222     -0.14884870      3.41770778
    H      1.39986517      0.74043613      2.64053459
 
 
 
