#p b3lyp 6-311+g(3df,2p) scf=tight nosymm

41_Uracil-Pentane_2_y_+30

0    1
    N     -3.54311291     -0.46295546      0.82137178
    H     -3.48528043     -0.97419805      1.69176847
    C     -3.86730408      0.89771750      0.92697886
    O     -4.06792693      1.40288804      2.01795594
    C     -3.92238451      1.57648789     -0.35609276
    H     -4.16918668      2.62384780     -0.37730821
    C     -3.66328410      0.89030199     -1.48790978
    H     -3.68945659      1.35045266     -2.46456299
    N     -3.34554330     -0.44139781     -1.47115029
    H     -3.13349454     -0.93712848     -2.32114797
    C     -3.25598301     -1.19360471     -0.31245878
    O     -2.95327941     -2.37082270     -0.30745205
    C     -0.01055390      0.36349311     -2.25918751
    H     -0.90640434      0.82982468     -1.84667896
    H      0.64125930      1.16626913     -2.60364830
    H     -0.30452374     -0.22341270     -3.12858953
    C      0.68764110     -0.48901230     -1.20748785
    H      1.58220260     -0.94312489     -1.63957408
    H      0.04285936     -1.31704765     -0.90401223
    C      1.08097222      0.31440315      0.02523451
    H      1.74907901      1.12899697     -0.27080111
    H      0.19114247      0.79462498      0.44522859
    C      1.75649261     -0.52681449      1.10005427
    H      2.65710515     -0.98196241      0.68116876
    H      1.09687940     -1.35383121      1.37314108
    C      2.11813046      0.28706182      2.33598838
    H      1.23276282      0.73959042      2.78348526
    H      2.59902740     -0.32821311      3.09521396
    H      2.80413639      1.09444161      2.07939193
 
 
 
