#p b3lyp 6-311+g(3df,2p) scf=tight nosymm

41_Uracil-Pentane_2_y_-30

0    1
    N     -3.54311291     -0.46295546      0.82137178
    H     -3.48528043     -0.97419805      1.69176847
    C     -3.86730408      0.89771750      0.92697886
    O     -4.06792693      1.40288804      2.01795594
    C     -3.92238451      1.57648789     -0.35609276
    H     -4.16918668      2.62384780     -0.37730821
    C     -3.66328410      0.89030199     -1.48790978
    H     -3.68945659      1.35045266     -2.46456299
    N     -3.34554330     -0.44139781     -1.47115029
    H     -3.13349454     -0.93712848     -2.32114797
    C     -3.25598301     -1.19360471     -0.31245878
    O     -2.95327941     -2.37082270     -0.30745205
    C      2.62455074      0.36349311     -2.11273487
    H      1.81938264      0.82982468     -2.68230984
    H      3.24876915      1.16626913     -1.72047847
    H      3.23049006     -0.22341270     -2.80202123
    C      2.06284963     -0.48901230     -0.98223043
    H      2.88432803     -0.94312489     -0.42356056
    H      1.47764116     -1.31704765     -1.38889000
    C      1.19194630      0.31440315     -0.02523451
    H      1.78237407      1.12899697      0.40534513
    H      0.38330589      0.79462498     -0.58585264
    C      0.59888528     -0.52681449      1.09719319
    H      1.41195704     -0.98196241      1.66770377
    H      0.03257856     -1.35383121      0.66249479
    C     -0.29064612      0.28706182      2.02834781
    H     -1.12087362      0.73959042      1.48534538
    H     -0.70770630     -0.32821311      2.82442956
    H      0.27457589      1.09444161      2.49414815
 
 
 
