#p b3lyp 6-311+g(3df,2p) scf=tight nosymm

41_Uracil-Pentane_1_z_+30

0    1
    N     -0.02626177     -0.46295546     -0.82137178
    H     -0.08409424     -0.97419805     -1.69176847
    C      0.29792941      0.89771750     -0.92697886
    O      0.49855225      1.40288804     -2.01795594
    C      0.35300983      1.57648789      0.35609276
    H      0.59981200      2.62384780      0.37730821
    C      0.09390943      0.89030199      1.48790978
    H      0.12008192      1.35045266      2.46456299
    N     -0.22383138     -0.44139781      1.47115029
    H     -0.43588013     -0.93712848      2.32114797
    C     -0.31339167     -1.19360471      0.31245878
    O     -0.61609527     -2.37082270      0.30745205
    C     -4.30755937     -1.54311939      2.52413056
    H     -3.69021588     -0.64822265      2.61481290
    H     -5.34696318     -1.21625356      2.49653576
    H     -4.17009120     -2.14145256      3.42403972
    C     -3.94955360     -2.32081312      1.26423444
    H     -4.58051726     -3.20946421      1.19115134
    H     -2.92054082     -2.68284518      1.32380772
    C     -4.11247522     -1.48717171      0.00000000
    H     -5.14903941     -1.14502041     -0.07767902
    H     -3.50335106     -0.58098131      0.08118933
    C     -3.73309609     -2.23949152     -1.26858141
    H     -4.36236428     -3.12835924     -1.35612219
    H     -2.70662777     -2.60181641     -1.17527492
    C     -3.87608747     -1.38226423     -2.51975067
    H     -3.24455420     -0.49511331     -2.46461052
    H     -3.60036838     -1.93353603     -3.41770778
    H     -4.90539134     -1.04425121     -2.64053459
 
 
 
