#p b3lyp 6-311+g(3df,2p) scf=tight nosymm

42_Uracil-Cyclopentane_2_z_-30

0    1
    N     -3.55734662     -0.91522532      0.03030527
    H     -3.30774350     -1.89500596      0.03735843
    C     -3.66855909     -0.29900472      1.28549724
    O     -3.47154683     -0.93517443      2.30628785
    C     -4.02269255      1.10746513      1.20516116
    H     -4.13313347      1.66639768      2.11823395
    C     -4.20880336      1.68309417     -0.00000000
    H     -4.47238643      2.72429524     -0.11134963
    N     -4.07013268      0.98103344     -1.16805725
    H     -4.19912495      1.42495520     -2.06203204
    C     -3.72673421     -0.35955699     -1.22068719
    O     -3.58979358     -0.96991656     -2.26248098
    C      0.11992577     -0.96192104     -0.70522265
    H     -0.83689859     -0.67548584     -1.14454941
    H      0.34030134     -1.97361637     -1.04150447
    C      1.18071300      0.05593371     -1.12724271
    H      1.11866676      0.32649983     -2.18047681
    H      2.18013644     -0.34381232     -0.93958388
    C      0.91129351      1.22235301     -0.17897127
    H      0.00013884      1.73591715     -0.49357659
    H      1.71323575      1.95930745     -0.15278797
    C      0.69041090      0.53190326      1.17301289
    H      0.06403086      1.11421032      1.84670108
    H      1.65157156      0.39370445      1.66853674
    C      0.06713513     -0.84523107      0.83241394
    H     -0.94965984     -0.92736260      1.21249437
    H      0.64161462     -1.64556156      1.29636011
 
 
 
