#p b3lyp 6-311+g(3df,2p) scf=tight nosymm

42_Uracil-Cyclopentane_1_z_-30

0    1
    N     -0.22313579     -0.91522532     -0.03030527
    H     -0.47273891     -1.89500596     -0.03735843
    C     -0.11192331     -0.29900472     -1.28549724
    O     -0.30893558     -0.93517443     -2.30628785
    C      0.24221014      1.10746513     -1.20516116
    H      0.35265105      1.66639768     -2.11823395
    C      0.42832095      1.68309417      0.00000000
    H      0.69190402      2.72429524      0.11134963
    N      0.28965027      0.98103344      1.16805725
    H      0.41864253      1.42495520      2.06203204
    C     -0.05374820     -0.35955699      1.22068719
    O     -0.19068883     -0.96991656      2.26248098
    C     -4.53491253      0.99900760      0.70522265
    H     -3.80844019      0.31359100      1.14454941
    H     -5.52125418      0.68401078      1.04150447
    C     -4.18381807      2.42660367      1.12724271
    H     -3.91847783      2.50815311      2.18047681
    H     -5.02972002      3.09225674      0.93958388
    C     -3.03895959      2.77648919      0.17897127
    H     -2.13862266      2.24418817      0.49357659
    H     -2.80170944      3.83946877      0.15278797
    C     -3.52646530      2.23997437     -1.17301289
    H     -2.70898258      1.98866687     -1.84670108
    H     -4.12672932      3.00326451     -1.66853674
    C     -4.40746073      1.01163456     -0.83241394
    H     -3.97019124      0.08999852     -1.21249437
    H     -5.38780701      1.10898315     -1.29636011
 
 
 
