#p b3lyp 6-311+g(3df,2p) scf=tight nosymm

43_Uracil-Neopentane_1_z_-30

0    1
    N     -0.22961107     -0.91419328     -0.02988765
    H     -0.53680650     -1.87729017     -0.03710340
    C     -0.08893892     -0.30516999     -1.28457155
    O     -0.30713569     -0.93444062     -2.30586447
    C      0.32039915      1.08627230     -1.20590488
    H      0.47215400      1.63408971     -2.11977839
    C      0.49426371      1.66465762      0.00000000
    H      0.79166824      2.69680619      0.11098557
    N      0.29965957      0.97749288      1.16791680
    H      0.40488217      1.42788878      2.06167000
    C     -0.09577648     -0.34854421      1.22002579
    O     -0.29839615     -0.93987739      2.26230183
    C     -4.42224258      2.18689259     -0.00045294
    C     -4.66694966      3.02361973     -1.25325225
    H     -5.66498428      2.83996555     -1.65350106
    H     -4.58233510      4.08869591     -1.03203387
    H     -3.94150008      2.77882875     -2.03042515
    C     -5.45120636      2.54953295      1.06695365
    H     -5.29480422      1.96111235      1.97214959
    H     -5.38026355      3.60533631      1.33264592
    H     -6.46403635      2.35816386      0.70985042
    C     -3.02001714      2.47009199      0.53356778
    H     -2.82052015      1.87736925      1.42824117
    H     -2.91213311      3.52450096      0.79430156
    H     -2.26394029      2.23074149     -0.21677830
    C     -4.54926421      0.70524291     -0.34690800
    H     -3.84039568      0.42329805     -1.12724266
    H     -4.36126750      0.08690414      0.53295317
    H     -5.55333254      0.47947927     -0.70906744
 
 
 
