#p b3lyp 6-311+g(3df,2p) scf=tight nosymm

43_Uracil-Neopentane_2_z_-30

0    1
    N     -4.14480597     -0.91419328      0.02988765
    H     -3.83761055     -1.87729017      0.03710340
    C     -4.28547813     -0.30516999      1.28457155
    O     -4.06728135     -0.93444062      2.30586447
    C     -4.69481619      1.08627230      1.20590488
    H     -4.84657104      1.63408971      2.11977839
    C     -4.86868076      1.66465762     -0.00000000
    H     -5.16608528      2.69680619     -0.11098557
    N     -4.67407661      0.97749288     -1.16791680
    H     -4.77929922      1.42788878     -2.06167000
    C     -4.27864056     -0.34854421     -1.22002579
    O     -4.07602090     -0.93987739     -2.26230183
    C      0.55348099     -0.00022650      0.00045294
    C      1.40046149      0.20621452      1.25325225
    H      1.74042961     -0.74993590      1.65350106
    H      2.28053724      0.81203096      1.03203387
    H      0.82574149      0.71207680      2.03042515
    C      1.38201865     -0.71001510     -1.06695365
    H      0.79423039     -0.86877717     -1.97214959
    H      2.26089977     -0.12067514     -1.33264592
    H      1.72270315     -1.68283614     -0.70985042
    C      0.09762614      1.35573605     -0.53356778
    H     -0.51543530      1.23214414     -1.42824117
    H      0.95682908      1.97637085     -0.79430156
    H     -0.48769589      1.89084256      0.21677830
    C     -0.66615446     -0.85105530      0.34690800
    H     -1.26476013     -0.37812957      1.12724266
    H     -1.29564990     -0.99741476     -0.53295317
    H     -0.35963734     -1.83348581      0.70906744
 
 
 
