#p b3lyp 6-311+g(3df,2p) scf=tight nosymm

44_Ethene-Pentane_1_z_+30

0    1
    C     -0.00004119      0.66618869      0.00000000
    H     -0.79823181      1.22838153      0.46330871
    H      0.79903628      1.22811183     -0.46211415
    C     -0.00007040     -0.66618553     -0.00015822
    H     -0.79836414     -1.22842253      0.46308389
    H      0.79888932     -1.22810848     -0.46239310
    C     -2.48306682     -4.10465274      0.33216036
    H     -1.72366857     -3.70092612      1.00232949
    H     -3.24210715     -4.58506733      0.94942787
    H     -2.01334495     -4.87351298     -0.27936528
    C     -3.09707321     -3.00182937     -0.52009375
    H     -3.83957686     -3.43032079     -1.19722674
    H     -2.32912042     -2.54829517     -1.15046843
    C     -3.75608437     -1.91509386      0.31840317
    H     -4.53053601     -2.36287144      0.94836913
    H     -3.01624400     -1.48845189      1.00282597
    C     -4.36855278     -0.80009923     -0.51824059
    H     -5.11149066     -1.22805770     -1.19509678
    H     -3.59243225     -0.36099781     -1.14880363
    C     -5.01582408      0.28205749      0.33596006
    H     -4.28586818      0.73704800      1.00601745
    H     -5.44745158      1.07397624     -0.27415172
    H     -5.81080284     -0.13590756      0.95352393
 
 
 
