#p b3lyp 6-311+g(3df,2p) scf=tight nosymm

46_Peptide-Pentane_1_z_-30

0    1
    C     -0.25275624      1.06606814      1.54416992
    H     -0.33857438      2.07669079      1.15082954
    H      0.61866379      1.01210593      2.19424056
    H     -1.12855042      0.83471348      2.14370370
    C     -0.11648535      0.01424118      0.46865252
    O     -0.25356193     -1.17863823      0.70806040
    N      0.17993924      0.49297371     -0.77131981
    H      0.30189763      1.48288781     -0.88117614
    C      0.42223637     -0.38279755     -1.89620933
    H      0.23201968     -1.39607380     -1.55614155
    H     -0.24621424     -0.15100243     -2.72303269
    H      1.45364063     -0.31253800     -2.23872627
    C     -3.98442523      2.33909611      2.47350411
    H     -2.96471258      2.66569767      2.68027881
    H     -4.58838767      3.23383013      2.32102366
    H     -4.35729450      1.83084873      3.36142641
    C     -4.02962077      1.43728790      1.24666966
    H     -5.06008135      1.12537527      1.06109978
    H     -3.45705460      0.52535684      1.42692053
    C     -3.48834800      2.12440866      0.00000000
    H     -4.04092420      3.05326728     -0.17375316
    H     -2.44737441      2.41739914      0.17135845
    C     -3.56242172      1.25230735     -1.24598630
    H     -4.60460687      0.98083495     -1.42933035
    H     -3.02778727      0.31939813     -1.05752137
    C     -2.99080547      1.94786757     -2.47421311
    H     -1.94411831      2.20956167     -2.31433015
    H     -3.04885839      1.31774610     -3.36108950
    H     -3.53175213      2.87047984     -2.68577752
 
 
 
