#p b3lyp 6-311+g(3df,2p) scf=tight nosymm

46_Peptide-Pentane_2_y_-30

0    1
    C     -3.40739803      1.06606814     -1.54416992
    H     -3.32157988      2.07669079     -1.15082954
    H     -4.27881805      1.01210593     -2.19424056
    H     -2.53160384      0.83471348     -2.14370370
    C     -3.54366891      0.01424118     -0.46865252
    O     -3.40659234     -1.17863823     -0.70806040
    N     -3.84009351      0.49297371      0.77131981
    H     -3.96205190      1.48288781      0.88117614
    C     -4.08239063     -0.38279755      1.89620933
    H     -3.89217395     -1.39607380      1.55614155
    H     -3.41394002     -0.15100243      2.72303269
    H     -5.11379490     -0.31253800      2.23872627
    C      3.02542244      0.25235297     -1.85164250
    H      2.50544792      1.04505454     -2.39061279
    H      3.78958524      0.72523414     -1.23438364
    H      3.52895797     -0.37423681     -2.58621048
    C      2.05540746     -0.55123362     -0.99505450
    H      2.60040582     -1.33658817     -0.46612192
    H      1.32123053     -1.05470600     -1.62706753
    C      1.32365007      0.31446680      0.02199529
    H      2.05341321      0.84259386      0.64395711
    H      0.75546770      1.08869079     -0.50391265
    C      0.37858127     -0.47783195      0.91510061
    H      0.95099711     -1.23402652      1.45729253
    H     -0.33212365     -1.01843781      0.28715439
    C     -0.36305792      0.41034899      1.90514919
    H     -0.95481494      1.16032632      1.37888118
    H     -1.03580703     -0.16437866      2.54081396
    H      0.33637270      0.93888132      2.55325919
 
 
 
