#p b3lyp 6-311+g(3df,2p) scf=tight nosymm

47_Benzene-Benzene_TS_2_y_+30

0    1
    C     -2.43501256      1.20559689      0.69663791
    H     -2.38239380      2.14077705      1.23726246
    C     -2.48344413      1.20723230     -0.69663791
    H     -2.46708777      2.14361220     -1.23739369
    C     -2.55062359      0.00172416     -1.39318798
    H     -2.58406811      0.00275052     -2.47397728
    C     -2.57145656     -1.20529154     -0.69656340
    H     -2.62535967     -2.14010362     -1.23785468
    C     -2.52184402     -1.20734522      0.69653737
    H     -2.53669370     -2.14370078      1.23763026
    C     -2.45276207     -0.00189515      1.39325278
    H     -2.41170603     -0.00359080      2.47387087
    C      0.88754013     -0.39543530     -0.69810028
    H      0.16266755      0.00000000      0.00000000
    C      0.93437303     -1.76536063     -0.95119803
    H      0.24361906     -2.42686825     -0.44599568
    C      1.86630073     -2.27931531     -1.85129215
    H      1.90151041     -3.34258347     -2.04682978
    C      2.75366213     -1.42241825     -2.50044064
    H      3.47698484     -1.82043542     -3.19916842
    C      2.70855742     -0.05233530     -2.24863772
    H      3.39708239      0.61264559     -2.75225537
    C      1.77607673      0.45976766     -1.34779300
    H      1.74106917      1.52317924     -1.15236739
 
 
 
