#p b3lyp 6-311+g(3df,2p) scf=tight nosymm

47_Benzene-Benzene_TS_1_z_+30

0    1
    C     -0.06741017      1.20559689     -0.69663791
    H     -0.12002894      2.14077705     -1.23726246
    C     -0.01897860      1.20723230      0.69663791
    H     -0.03533497      2.14361220      1.23739369
    C      0.04820086      0.00172416      1.39318798
    H      0.08164538      0.00275052      2.47397728
    C      0.06903383     -1.20529154      0.69656340
    H      0.12293693     -2.14010362      1.23785468
    C      0.01942128     -1.20734522     -0.69653737
    H      0.03427096     -2.14370078     -1.23763026
    C     -0.04966067     -0.00189515     -1.39325278
    H     -0.09071671     -0.00359080     -2.47387087
    C     -3.47427028     -2.08207249      0.24213629
    H     -2.82604720     -1.25121137      0.00000000
    C     -2.93402684     -3.35201630      0.43790892
    H     -1.86644851     -3.49949288      0.34576783
    C     -3.76574745     -4.42567418      0.75144944
    H     -3.34519091     -5.41062206      0.90318515
    C     -5.14080657     -4.23010543      0.86994782
    H     -5.78684802     -5.06268828      1.11340248
    C     -5.68298565     -2.96109715      0.67443245
    H     -6.74994266     -2.80925128      0.76631565
    C     -4.84959941     -1.88861582      0.36051839
    H     -5.27042776     -0.90365925      0.20877862
 
 
 
