#p b3lyp 6-311+g(3df,2p) scf=tight nosymm

47_Benzene-Benzene_TS_1_y_-30

0    1
    C     -0.06741017      1.20559689     -0.69663791
    H     -0.12002894      2.14077705     -1.23726246
    C     -0.01897860      1.20723230      0.69663791
    H     -0.03533497      2.14361220      1.23739369
    C      0.04820086      0.00172416      1.39318798
    H      0.08164538      0.00275052      2.47397728
    C      0.06903383     -1.20529154      0.69656340
    H      0.12293693     -2.14010362      1.23785468
    C      0.01942128     -1.20734522     -0.69653737
    H      0.03427096     -2.14370078     -1.23763026
    C     -0.04966067     -0.00189515     -1.39325278
    H     -0.09071671     -0.00359080     -2.47387087
    C     -3.70104886     -0.39543530     -1.52991930
    H     -2.73403999      0.00000000     -1.25121137
    C     -3.94365440     -1.76536063     -1.44392891
    H     -3.16075934     -2.42686825     -1.09831960
    C     -5.18912262     -2.27931531     -1.80095491
    H     -5.37606801     -3.34258347     -1.73367858
    C     -6.19498240     -1.42241825     -2.24485818
    H     -7.16175976     -1.82043542     -2.52191013
    C     -5.95436232     -0.05233530     -2.33169782
    H     -6.73477049      0.61264559     -2.67616911
    C     -4.70796756      0.45976766     -1.97456820
    H     -4.52122024      1.52317924     -2.04196358
 
 
 
