#p b3lyp 6-311+g(3df,2p) scf=tight nosymm

47_Benzene-Benzene_TS_2_z_-30

0    1
    C     -2.43501256      1.20559689      0.69663791
    H     -2.38239380      2.14077705      1.23726246
    C     -2.48344413      1.20723230     -0.69663791
    H     -2.46708777      2.14361220     -1.23739369
    C     -2.55062359      0.00172416     -1.39318798
    H     -2.58406811      0.00275052     -2.47397728
    C     -2.57145656     -1.20529154     -0.69656340
    H     -2.62535967     -2.14010362     -1.23785468
    C     -2.52184402     -1.20734522      0.69653737
    H     -2.53669370     -2.14370078      1.23763026
    C     -2.45276207     -0.00189515      1.39325278
    H     -2.41170603     -0.00359080      2.47387087
    C      1.53478845     -0.83086112     -0.24213629
    H      0.88656538      0.00000000      0.00000000
    C      0.99454501     -2.10080494     -0.43790892
    H     -0.07303332     -2.24828151     -0.34576783
    C      1.82626563     -3.17446281     -0.75144944
    H      1.40570909     -4.15941069     -0.90318515
    C      3.20132475     -2.97889407     -0.86994782
    H      3.84736620     -3.81147691     -1.11340248
    C      3.74350383     -1.70988578     -0.67443245
    H      4.81046084     -1.55803991     -0.76631565
    C      2.91011758     -0.63740445     -0.36051839
    H      3.33094593      0.34755211     -0.20877862
 
 
 
