#p b3lyp 6-311+g(3df,2p) scf=tight nosymm

49_Benzene-Pyridine_TS_2_y_+30

0    1
    C     -2.53254452      1.19524262     -0.71535551
    H     -2.57783162      2.12196101     -1.27120780
    C     -2.46959877     -0.02079865     -1.39408463
    H     -2.46229593     -0.03674450     -2.47528226
    C     -2.41646635     -1.21627642     -0.67865542
    H     -2.36987188     -2.15965929     -1.20533400
    C     -2.42343136     -1.19532997      0.71542263
    H     -2.38222495     -2.12248588      1.27060594
    C     -2.48344695      0.02103934      1.39405121
    H     -2.48667535      0.03757495      2.47526534
    C     -2.53940497      1.21614311      0.67862166
    H     -2.58963996      2.15911501      1.20595349
    N      3.17610177      1.62225711     -1.69318377
    C      2.18377633      2.36471874     -1.18276011
    H      2.30247277      3.43774756     -1.27176486
    C      1.05399244      1.83077098     -0.56838679
    H      0.28697189      2.48315660     -0.17556410
    C      0.93333226      0.44832243     -0.47090794
    H      0.06951763      0.00000000      0.00000000
    C      1.95513298     -0.33599957     -0.99620587
    H      1.91245425     -1.41509757     -0.94760515
    C      3.04593598      0.29237654     -1.59199786
    H      3.85494273     -0.29517142     -2.00862835
 
 
 
