#p b3lyp 6-311+g(3df,2p) scf=tight nosymm

50_Benzene-Ethyne_CH-pi_2_y_-30

0    1
    C     -2.43519146     -1.39416529     -0.00002985
    H     -2.43045230     -2.47544175     -0.00008684
    C     -2.43557777     -0.69715205      1.20741435
    H     -2.43136193     -1.23783014      2.14379257
    C     -2.43583238      0.69703705      1.20735590
    H     -2.43171660      1.23784492      2.14366983
    C     -2.43589512      1.39420421      0.00001939
    H     -2.43179863      2.47547244     -0.00000000
    C     -2.43541639      0.69711865     -1.20737892
    H     -2.43068991      1.23773256     -2.14380025
    C     -2.43491584     -0.69705276     -1.20736264
    H     -2.42990186     -1.23765663     -2.14379234
    C      0.98297389      0.00486071      0.53717534
    H      0.06428300      0.00000000      0.00000000
    C      2.02947563      0.01059668      1.14959187
    H      2.94552953      0.01564538      1.68556151
 
 
 
