#p b3lyp 6-311+g(3df,2p) scf=tight nosymm

52_Benzene-AcOH_OH-pi_2_z_+30

0    1
    C     -3.91961596      0.69782353      1.20697577
    H     -3.92292174      0.15611512      2.14270698
    C     -3.95195175      2.09196921      1.20677651
    H     -3.98342584      2.63203152      2.14298957
    C     -3.93654452      2.78958018     -0.00012837
    H     -3.95510830      3.87060077      0.00000000
    C     -3.89284285      2.09322325     -1.20716819
    H     -3.87820400      2.63429579     -2.14321434
    C     -3.86013741      0.69911747     -1.20731408
    H     -3.81632550      0.15804549     -2.14235590
    C     -3.87093554      0.00000000     -0.00000000
    H     -3.82298275     -1.07940794      0.00001960
    C      0.53943001      0.00000000      0.00000000
    O      0.58699269     -1.20706219     -0.07153196
    O     -0.61737766      0.69362533      0.05735850
    H     -1.33344303      0.03516534      0.02747129
    C      1.72319205      0.92093216      0.03454670
    H      2.63643151      0.33869975      0.01026958
    H      1.68511853      1.59426065     -0.81871205
    H      1.68775700      1.53003199      0.93459009
 
 
 
