#p b3lyp 6-311+g(3df,2p) scf=tight nosymm

55_Benzene-MeOH_OH-pi_1_y_-30

0    1
    C      0.12672863      1.38894301     -0.00003446
    H      0.21995767      2.46610966      0.00000000
    C      0.06157062      0.69433699      1.20781822
    H      0.10391795      1.23353365      2.14396768
    C     -0.06349565     -0.69441895      1.20739276
    H     -0.11526469     -1.23234759      2.14396588
    C     -0.12361487     -1.38867605      0.00004152
    H     -0.22162519     -2.46561554      0.00009465
    C     -0.06230328     -0.69455742     -1.20736766
    H     -0.11290872     -1.23260825     -2.14394575
    C      0.06278497      0.69417447     -1.20785596
    H      0.10601806      1.23328685     -2.14401594
    O     -3.26335030      0.66987623     -1.62270627
    H     -2.43093148      0.67883077     -1.13988251
    C     -3.59850565     -0.68577430     -1.84994207
    H     -4.53916420     -0.69527342     -2.39388642
    H     -2.84856547     -1.20363323     -2.45231314
    H     -3.73483473     -1.24136869     -0.91925669
 
 
 
