#p b3lyp 6-311+g(3df,2p) scf=tight nosymm

55_Benzene-MeOH_OH-pi_1_y_+30

0    1
    C      0.12672863      1.38894301     -0.00003446
    H      0.21995767      2.46610966      0.00000000
    C      0.06157062      0.69433699      1.20781822
    H      0.10391795      1.23353365      2.14396768
    C     -0.06349565     -0.69441895      1.20739276
    H     -0.11526469     -1.23234759      2.14396588
    C     -0.12361487     -1.38867605      0.00004152
    H     -0.22162519     -2.46561554      0.00009465
    C     -0.06230328     -0.69455742     -1.20736766
    H     -0.11290872     -1.23260825     -2.14394575
    C      0.06278497      0.69417447     -1.20785596
    H      0.10601806      1.23328685     -2.14401594
    O     -3.25598157      0.66987623      1.64760879
    H     -2.42163452      0.67883077      1.16812484
    C     -3.62035123     -0.68577430      1.82424395
    H     -4.56175012     -0.69527342      2.36690597
    H     -3.76704979     -1.20363323      0.87359117
    H     -2.88251858     -1.24136869      2.40765108
 
 
 
