#p b3lyp 6-311+g(3df,2p) scf=tight nosymm

56_Benzene-MeNH2_NH-pi_1_z_-30

0    1
    C      0.27156556     -0.65835298      1.19841009
    H      0.48201216     -1.16919652      2.12805610
    C      0.25794654     -1.37028665     -0.00015124
    H      0.45453628     -2.43353773     -0.00030994
    C     -0.01462116     -0.71181510     -1.19861773
    H     -0.03072268     -1.26496445     -2.12752047
    C     -0.27133916      0.65835320     -1.19825725
    H     -0.48307139      1.16858150     -2.12791611
    C     -0.25648699      1.37038204      0.00011574
    H     -0.45606134      2.43318631      0.00000000
    C      0.01369685      0.71188772      1.19844696
    H      0.02423115      1.26392618      2.12832702
    N     -3.89411225      1.12279648      0.21067572
    H     -3.03803398      0.58300445      0.16630925
    H     -4.14355856      1.15204449      1.19087030
    C     -3.62456504      2.48066082     -0.25763678
    H     -4.53567090      3.07254912     -0.19232134
    H     -2.83478772      3.01090461      0.28438967
    H     -3.33813567      2.44410449     -1.30686043
 
 
 
