#p b3lyp 6-311+g(3df,2p) scf=tight nosymm

56_Benzene-MeNH2_NH-pi_1_y_+30

0    1
    C      0.27156556     -0.65835298      1.19841009
    H      0.48201216     -1.16919652      2.12805610
    C      0.25794654     -1.37028665     -0.00015124
    H      0.45453628     -2.43353773     -0.00030994
    C     -0.01462116     -0.71181510     -1.19861773
    H     -0.03072268     -1.26496445     -2.12752047
    C     -0.27133916      0.65835320     -1.19825725
    H     -0.48307139      1.16858150     -2.12791611
    C     -0.25648699      1.37038204      0.00011574
    H     -0.45606134      2.43318631      0.00000000
    C      0.01369685      0.71188772      1.19844696
    H      0.02423115      1.26392618      2.12832702
    N     -3.28172658     -0.66319376      1.87958965
    H     -2.42811431     -0.70262825      1.33552640
    H     -2.99137879     -0.76258740      2.84378848
    C     -3.90169493      0.64752485      1.69676785
    H     -4.80866176      0.70456222      2.29582517
    H     -3.26795102      1.50161810      1.95675386
    H     -4.19565538      0.75908083      0.65494688
 
 
 
