#p b3lyp 6-311+g(3df,2p) scf=tight nosymm

57_Benzene-Peptide_NH-pi_1_y_+30

0    1
    C     -0.05464924      1.32579990      0.42928166
    H     -0.09694133      2.35376309      0.76230218
    C      0.07418272      0.29605065      1.36071003
    H      0.12912429      0.52567993      2.41581833
    C      0.13068062     -1.02909552      0.93154141
    H      0.23212379     -1.82728229      1.65392742
    C      0.05530376     -1.32566962     -0.42884995
    H      0.09954755     -2.35364179     -0.76166730
    C     -0.07605799     -0.29671210     -1.36083960
    H     -0.13522906     -0.52635683     -2.41585081
    C     -0.12957570      1.02962701     -0.93180178
    H     -0.22724506      1.82783409     -1.65502758
    C     -3.89072976      1.97080240      1.97650932
    H     -3.20649547      2.07868421      1.13824813
    H     -3.54768562      2.59090886      2.80199984
    H     -4.87789913      2.32349981      1.68877892
    C     -4.01475900      0.54569299      2.46593187
    O     -4.80925959      0.23256512      3.34465854
    N     -3.18644781     -0.34257880      1.85607071
    H     -2.51998488     -0.00000000      1.18510939
    C     -3.14349541     -1.73325733      2.24216438
    H     -4.00687770     -1.92178594      2.87293828
    H     -3.18659471     -2.37479907      1.36423753
    H     -2.23845227     -1.96650142      2.80357075
 
 
 
