#p b3lyp 6-311+g(3df,2p) scf=tight nosymm

58_Pyridine-Pyridine_CH-N_1_z_+30

0    1
    N      0.47505601      0.91597414     -0.00259397
    C      0.49227527     -0.42663190      0.00755715
    H     -0.47505601     -0.91597414      0.00259397
    C      1.66636020     -1.17618933      0.02408888
    H      1.61503064     -2.25565349      0.03159854
    C      2.88897092     -0.51344265      0.03074710
    H      3.81919662     -1.06453641      0.04367307
    C      2.88459901      0.87747129      0.02042274
    H      3.80648235      1.44152430      0.02504168
    C      1.66076482      1.54062493      0.00389091
    H      1.62698643      2.62326092     -0.00450705
    N     -2.55706393     -2.27064280      0.00810806
    C     -3.27144493     -3.40450752      0.02016120
    H     -2.70067504     -4.32510876      0.02556260
    C     -4.66297879     -3.44228278      0.02583604
    H     -5.17919657     -4.39172808      0.03570293
    C     -5.36246153     -2.24002160      0.01857360
    H     -6.44367926     -2.22799426      0.02264139
    C     -4.63517316     -1.05470823      0.00600834
    H     -5.13065377     -0.09428969      0.00000000
    C     -3.24351637     -1.11663556      0.00124899
    H     -2.65056667     -0.20914824     -0.00810806
 
 
 
