#p b3lyp 6-311+g(3df,2p) scf=tight nosymm

59_Ethyne-Water_CH-O_2_y_-30

0    1
    C     -3.29872192      0.00286633      0.01251769
    H     -2.23221250     -0.00000000     -0.00000000
    C     -4.51127694      0.00631506      0.02771635
    H     -5.57245513      0.00915763      0.03998539
    O      0.02256827      0.00000000      0.00000000
    H      0.52261793      0.76600951      0.28870381
    H      0.40107378     -0.72502191      0.50118224
 
 
 
