#p b3lyp 6-311+g(3df,2p) scf=tight nosymm

59_Ethyne-Water_CH-O_1_y_+30

0    1
    C      1.06650942      0.00286633     -0.01251769
    H      0.00000000      0.00000000      0.00000000
    C      2.27906444      0.00631506     -0.02771635
    H      3.34024263      0.00915763     -0.03998539
    O     -2.06618284      0.00000000      1.11610625
    H     -2.56623251      0.76600951      1.40481006
    H     -2.68947215     -0.72502191      1.19331052
 
 
 
