#p b3lyp 6-311+g(3df,2p) scf=tight nosymm

60_Ethyne-AcOH_OH-pi_1_y_+30

0    1
    C     -0.11438267     -0.59566805     -0.00000525
    H     -0.36371482     -1.63011710     -0.00006033
    C      0.11438267      0.59566805      0.00000525
    H      0.33426782      1.63480569      0.00000000
    C     -3.17992067     -1.31639265      1.83840065
    O     -2.49110353     -2.23061038      1.44235824
    O     -2.86208854     -0.01784138      1.65635292
    H     -2.01815614     -0.00000000      1.17118320
    C     -4.47371822     -1.45953508      2.58161651
    H     -4.70402109     -2.51015681      2.71021791
    H     -4.39387737     -0.97041743      3.54957069
    H     -5.26847082     -0.96456589      2.02859297
 
 
 
