#p b3lyp 6-311+g(3df,2p) scf=tight nosymm

60_Ethyne-AcOH_OH-pi_1_z_-30

0    1
    C     -0.11438267     -0.59566805     -0.00000525
    H     -0.36371482     -1.63011710     -0.00006033
    C      0.11438267      0.59566805      0.00000525
    H      0.33426782      1.63480569      0.00000000
    C     -4.00063228      0.70101689     -0.00305500
    O     -3.76963690     -0.48799606     -0.00162922
    O     -3.03415357      1.64245799     -0.00179691
    H     -2.18219893      1.17118320     -0.00000000
    C     -5.36437356      1.32308665     -0.00630997
    H     -6.11809762      0.54509596     -0.01008932
    H     -5.47907056      1.95409140      0.87188336
    H     -5.47348720      1.95762462     -0.88261870
 
 
 
