#p b3lyp 6-311+g(3df,2p) scf=tight nosymm

61_Pentane-AcOH_2_z_-30

0    1
    C     -2.97591055      0.27648247     -2.39792235
    H     -3.77658969      0.93667308     -2.73118428
    H     -2.12060796      0.90061383     -2.13993846
    H     -2.69653486     -0.35708720     -3.23896628
    C     -3.42356667     -0.54867560     -1.19806518
    H     -2.63000644     -1.24344700     -0.91171766
    H     -4.28375539     -1.16411625     -1.47221873
    C     -3.79030828      0.31744898      0.00000000
    H     -2.92248167      0.91526576      0.29334654
    H     -4.56391985      1.03215152     -0.29580102
    C     -4.28567630     -0.48641054      1.19483600
    H     -3.53506402     -1.23348776      1.46491930
    H     -5.17850089     -1.04525446      0.90531149
    C     -4.59429606      0.39029365      2.40124998
    H     -5.36069851      1.12587628      2.15775812
    H     -4.95021044     -0.19617860      3.24692787
    H     -3.70567019      0.93505534      2.72039002
    C      0.34938234      0.09650581     -0.01482059
    O      0.87510006      1.12103442     -0.38232338
    O      0.12754644     -0.95006521     -0.84733427
    H      0.46426434     -0.66742834     -1.71066418
    C     -0.14301065     -0.19799221      1.36840448
    H      0.07469561      0.64232163      2.01675552
    H     -1.21522100     -0.37947987      1.33910868
    H      0.33422245     -1.09994955      1.74418278
 
 
 
