#p b3lyp 6-311+g(3df,2p) scf=tight nosymm

61_Pentane-AcOH_1_y_-30

0    1
    C     -0.83743501      0.27648247      2.39792235
    H     -0.03675587      0.93667308      2.73118428
    H     -1.69273760      0.90061383      2.13993846
    H     -1.11681070     -0.35708720      3.23896628
    C     -0.38977888     -0.54867560      1.19806518
    H     -1.18333911     -1.24344700      0.91171766
    H      0.47040984     -1.16411625      1.47221873
    C     -0.02303728      0.31744898      0.00000000
    H     -0.89086389      0.91526576     -0.29334654
    H      0.75057430      1.03215152      0.29580102
    C      0.47233074     -0.48641054     -1.19483600
    H     -0.27828154     -1.23348776     -1.46491930
    H      1.36515533     -1.04525446     -0.90531149
    C      0.78095051      0.39029365     -2.40124998
    H      1.54735295      1.12587628     -2.15775812
    H      1.13686488     -0.19617860     -3.24692787
    H     -0.10767536      0.93505534     -2.72039002
    C     -4.00024084      0.10693490     -1.88994031
    O     -4.13464662      1.25706157     -1.54318385
    O     -4.70329930     -0.91034013     -1.33454730
    H     -5.26511733     -0.49721047     -0.66202557
    C     -3.06685495     -0.39430436     -2.94826044
    H     -2.54209256      0.44228191     -3.39394003
    H     -2.35593154     -1.08758245     -2.50398075
    H     -3.62744961     -0.93680578     -3.70583132
 
 
 
