#p b3lyp 6-311+g(3df,2p) scf=tight nosymm

63_Benzene-AcOH_2_z_-30

0    1
    C     -3.37168851     -0.70603722      1.19676005
    H     -3.28706506     -1.25363899      2.12547291
    C     -3.26940215      0.68405967      1.19776059
    H     -3.09616584      1.21358310      2.12411233
    C     -3.37644686      1.38964408      0.00036400
    H     -3.29680030      2.46810796     -0.00000000
    C     -3.58223628      0.70655835     -1.19737508
    H     -3.66185320      1.25501934     -2.12601323
    C     -3.68390001     -0.68403295     -1.19750877
    H     -3.84541650     -1.21440138     -2.12609478
    C     -3.57972729     -1.39018642      0.00016955
    H     -3.66011262     -2.46873581      0.00049284
    C      0.76210023      1.18985929      0.54654135
    O      0.89271412      1.47798331      1.71352970
    O      1.27590561      1.95464437     -0.45055827
    H      1.71338918      2.69264108     -0.00113400
    C      0.03932487      0.00000000      0.00000000
    H     -0.26435084     -0.64422830      0.81636126
    H     -0.83962389      0.34073510     -0.54549414
    H      0.68073545     -0.53691662     -0.69468716
 
 
 
