#p b3lyp 6-311+g(3df,2p) scf=tight nosymm

64_Peptide-Ethene_2_y_-30

0    1
    C     -3.35746010     -1.72495784     -0.73223655
    H     -3.87686839     -1.68761943     -1.68714717
    H     -3.73080242     -2.56039874     -0.14748746
    H     -2.29565580     -1.88582492     -0.91123396
    C     -3.51216014     -0.46196867      0.07915269
    O     -3.23167345     -0.41377721      1.27018644
    N     -3.96386356      0.61926180     -0.61526061
    H     -4.12796483      0.51822720     -1.59982350
    C     -4.09348918      1.92130902      0.00000000
    H     -4.07688073      1.77355873      1.07517322
    H     -3.27176531      2.58397652     -0.27225678
    H     -5.03372965      2.38572717     -0.28724517
    C      0.58256743      0.44269701     -0.47122624
    H      1.61219657      0.66300178     -0.71573973
    H     -0.18457263      0.97355894     -1.01774850
    C      0.26223205     -0.44360219      0.47154980
    H      1.02799182     -0.97162163      1.02242854
    H     -0.77141916     -0.65415283      0.70720409
 
 
 
