#p b3lyp 6-311+g(3df,2p) scf=tight nosymm

66_MeNH2-Pyridine_1_z_+30

0    1
    N      0.75247021     -0.16639162      0.65848319
    H      0.00000000      0.00000000     -0.00000000
    H      1.58067696      0.24641005      0.24947096
    C      0.43954574      0.51830779      1.91164348
    H      1.24723413      0.35710286      2.62338530
    H      0.27625899      1.59745418      1.82575053
    H     -0.46055090      0.08143731      2.34131497
    N     -2.23545484     -1.17846755      0.00000000
    C     -1.73179352     -2.24665412      0.63506446
    H     -0.83380203     -2.67272085      0.20635941
    C     -2.29039675     -2.79199579      1.78764784
    H     -1.83413571     -3.65353298      2.25379506
    C     -3.43241466     -2.20349469      2.32103373
    H     -3.89227624     -2.59735767      3.21674178
    C     -3.96675843     -1.09445136      1.67365913
    H     -4.85207450     -0.59980149      2.04702824
    C     -3.33684474     -0.62373315      0.52476786
    H     -3.72983073      0.23836115      0.00000000
 
 
 
