#p b3lyp 6-311+g(3df,2p) scf=tight nosymm

i12p

0    1
    C      2.65579810     -0.41743494      0.70736099
    C      2.07170317      0.41814691     -0.26030375
    C      2.90922804      1.08269723     -1.18066374
    C      4.28573185      0.91344027     -1.13205727
    C      4.86207466      0.07467021     -0.16015338
    C      4.03562449     -0.59291530      0.76438347
    C      0.62049251      0.57321574     -0.29004507
    N     -0.23569405      0.01352861      0.47941245
    C     -1.56480602      0.47840976      0.07112197
    C     -1.27755304      1.42214972     -1.11740990
    O      0.11342859      1.43369954     -1.27214137
    C     -2.14159394      1.32481106      1.27110405
    C     -3.55295302      1.80032076      1.12559594
    F     -4.47059044      0.86582633      1.51928389
    C     -2.49003059     -0.68554526     -0.29671642
    C     -2.28979321     -1.94036549      0.29718878
    C     -3.16186191     -2.99707620      0.02352694
    C     -4.24160044     -2.81329229     -0.84576025
    C     -4.44399308     -1.56312832     -1.43714854
    C     -3.57574481     -0.50239372     -1.16476130
    O     -1.99219809      2.08983771     -1.80897682
    O      6.22017096     -0.02590840     -0.19519686
    C      6.85920279     -0.86949167      0.77281121
    C     -3.97050306      2.98694988      0.69334608
    H     -5.02912028      3.22341587      0.63696944
    H     -3.24345013      3.72340854      0.36818074
    H     -1.44715750     -2.08337057      0.96717443
    H     -2.99461228     -3.96613402      0.49030124
    H     -4.91948635     -3.63743235     -1.05997836
    H     -5.28196492     -1.40799300     -2.11401384
    H     -3.74829507      0.46753438     -1.62004424
    H     -2.06563362      0.67706115      2.15188974
    H     -1.48324882      2.18779189      1.42377304
    H      2.47291620      1.73078358     -1.93500620
    H      4.93766221      1.42076648     -1.83842440
    H      4.45891594     -1.24450815      1.52214615
    H      2.01110015     -0.92971572      1.41658080
    H      7.92927457     -0.80197292      0.56105362
    H      6.52194279     -1.91151746      0.67018241
    H      6.65661767     -0.51826984      1.79541432
 
 
 
