#p b3lyp 6-311+g(3df,2p) scf=tight nosymm

i16e

0    1
    C     -3.05197023      0.81082902     -0.43970975
    C     -3.27108169     -0.48697191      0.01419663
    C     -2.18360803     -1.36330776      0.18710950
    C     -0.86786185     -0.96038627     -0.10983737
    C     -0.65967077      0.39391967     -0.48868980
    C     -1.74845156      1.25697220     -0.68745131
    C     -1.53691052      2.67201998     -1.19685921
    C      0.78534108      0.85865411     -0.72215185
    C     -0.13332295      2.83336039     -1.78556720
    N      0.85493017      2.33529069     -0.81292185
    C      1.71069812      0.18310775      0.29976073
    C      0.30000239     -1.86917460     -0.06137936
    C      1.58156515     -1.31116896      0.12868641
    C      1.31618366     -4.07623385     -0.23652905
    C      2.59434604     -3.51447379     -0.01390882
    C      2.70891596     -2.13673984      0.15890085
    C      0.18926190     -3.26153491     -0.26697058
    O     -4.54678836     -0.89817497      0.29322277
    O     -2.52227861     -2.63732401      0.65336613
    C     -2.11356052     -2.86529265      2.02228449
    O      1.31867840     -5.44510159     -0.41953297
    C      0.05921504     -6.08123682     -0.65262941
    O      3.71955695     -4.29253611      0.02036423
    C      1.33722265      3.14804049      0.18798101
    O      2.04547508      2.81878614      1.12508297
    O      0.94680867      4.45373687     -0.02147354
    C      1.49693483      5.42058031      0.91143799
    C      0.93997742      6.78199377      0.52900430
    H     -3.90370116      1.47011230     -0.59376196
    H     -2.29784179      2.90814487     -1.95392568
    H     -1.65881498      3.39606398     -0.37834102
    H      1.10009367      0.49686416     -1.71676675
    H     -0.02950022      2.21787487     -2.68991618
    H      0.08297764      3.86976803     -2.04501028
    H      1.41581891      0.47927799      1.31302293
    H      2.74465952      0.50598806      0.15439256
    H      3.69827220     -1.71011794      0.30882145
    H     -0.78708176     -3.69230934     -0.44834374
    H     -4.48483177     -1.84104200      0.52743083
    H     -2.56611259     -2.11371195      2.68564479
    H     -1.02008660     -2.82659461      2.10727177
    H     -2.47296621     -3.86536457      2.28746810
    H      0.27646291     -7.14738435     -0.76122067
    H     -0.62361324     -5.92005982      0.19536559
    H     -0.40993032     -5.69694043     -1.57072174
    H      3.45045829     -5.21203698     -0.13529764
    H      1.21193933      5.13560572      1.93177634
    H      2.59231648      5.39535711      0.84783168
    H     -0.15499095      6.78889528      0.59586241
    H      1.33498829      7.54191000      1.21597757
    H      1.23187597      7.05206628     -0.49334623
 
 
 
