#p b3lyp 6-311+g(3df,2p) scf=tight nosymm

i16p

0    1
    C     -3.97584986     -1.77408628     -0.62852712
    C     -3.87373945     -0.70893793      0.30607345
    C     -2.69699677      0.03451696      0.40147962
    C     -1.62865129     -0.29608541     -0.43719378
    C     -1.72109579     -1.33431949     -1.35953949
    C     -2.89932335     -2.08164951     -1.46040218
    C     -0.44644106     -1.48021290     -2.15087341
    C      0.59314713     -0.58255238     -1.41828730
    C     -0.27708650      0.41948520     -0.50035171
    C      0.33430369      0.54926482      0.86944312
    C      0.62677687      1.75492450      1.39545222
    C      0.33717168      3.03433368      0.72001769
    C     -0.18384159      2.93013609     -0.67863345
    C     -0.45267226      1.72199680     -1.21833888
    N      1.52377845     -1.36235410     -0.60260131
    C      0.92292119     -1.89572161      0.62585276
    C      0.59802113     -0.74165627      1.60937909
    O      0.50324178      4.11357269      1.29385790
    O     -0.50788997      4.05778379     -1.38559760
    C      0.54404642      5.03746813     -1.55725733
    C      2.87547481     -1.09724647     -0.71711557
    O      3.57482188     -1.65888632      0.31697120
    C      5.02038730     -1.50780667      0.24394516
    C      5.60493689     -2.17309771      1.47808956
    O     -5.00794842     -0.51313045      1.06284756
    C     -4.99892005      0.57300023      1.99660590
    O     -5.12368726     -2.51338879     -0.72477960
    O      3.39438775     -0.47684310     -1.63070817
    H     -5.76327533     -2.15790520     -0.08693492
    H      1.06633999      1.84145118      2.38921438
    H     -0.87060643      1.67242708     -2.22300810
    H      0.13027605      5.78927153     -2.23644522
    H      0.81776657      5.49298571     -0.60061466
    H      1.42558363      4.56846766     -2.02073017
    H     -0.29240989     -1.01708229      2.19411267
    H      1.42485533     -0.59095019      2.31322573
    H      1.59357434     -2.62392157      1.08170118
    H      0.00107355     -2.40855213      0.33334722
    H      1.19164916     -0.00535149     -2.12229326
    H     -0.57935025     -1.12855781     -3.18395527
    H     -0.08782028     -2.51591666     -2.20653264
    H     -2.60346041      0.85673696      1.10537728
    H     -3.00288038     -2.90112238     -2.16836635
    H     -4.21298961      0.42983324      2.75326037
    H     -5.98237090      0.56641635      2.47389000
    H     -4.83632335      1.52988042      1.47912839
    H      5.26229958     -0.43882540      0.20100200
    H      5.37853900     -1.97467981     -0.68209200
    H      5.23292773     -1.69553753      2.39290990
    H      6.69838518     -2.07824657      1.45690015
    H      5.34894338     -3.23932860      1.50709503
 
 
 
