#p b3lyp 6-311+g(3df,2p) scf=tight nosymm

i17p

0    1
    C      4.23498342     -0.88148490      2.26035224
    C      4.20665692     -0.21490174      3.49305665
    C      3.13772677      0.63766353      3.79031726
    C      2.11526480      0.82649932      2.85979353
    C      2.14362262      0.18786550      1.59976067
    C      3.21968287     -0.68657636      1.32630323
    C      1.02866038      0.41256187      0.68247354
    C      0.98117344      0.30590221     -0.68032885
    C     -0.28273292      0.40751880     -1.40560004
    C     -1.52097058      0.01171217     -0.99006534
    C     -1.82702966     -0.75421861      0.19188517
    C     -3.05737704     -0.99241383      0.72402533
    C     -6.77979786     -0.62285519      0.28704872
    C     -5.52571265     -1.12987744      0.62508175
    C     -4.34390230     -0.40166947      0.35844729
    C     -4.47735882      0.88121878     -0.21903944
    C     -5.73356390      1.38956773     -0.55203572
    C     -6.89013781      0.63884694     -0.31032248
    C      4.42966384      0.87327582     -2.17667727
    C      3.30519814      1.00159081     -1.36119082
    C      2.19371163      0.15691206     -1.53304611
    C      2.22985605     -0.80375902     -2.55856904
    C      3.35959300     -0.93892247     -3.37137753
    C      4.46393518     -0.10211575     -3.18162196
    H      5.05146538     -1.56371127      2.03027989
    H      5.00314729     -0.36975450      4.21830399
    H      3.09771224      1.14992260      4.74992817
    H      1.27921965      1.48324430      3.09741278
    H      3.24847734     -1.21812812      0.38053823
    H      0.10395697      0.71907988      1.17085571
    H     -0.20795688      0.82090812     -2.41222274
    H     -2.35461142      0.22513909     -1.65876471
    H     -0.97966051     -1.24864249      0.66839396
    H     -3.10858765     -1.73436946      1.52259739
    H     -7.67369301     -1.20880463      0.49332895
    H     -5.44433382     -2.11093641      1.09142816
    H     -3.59278038      1.49311349     -0.36944846
    H     -5.81213005      2.38351023     -0.98915562
    H     -7.86816634      1.03956036     -0.56935499
    H      5.28030537      1.53682169     -2.03187753
    H      3.27859698      1.75399456     -0.57693949
    H      1.36935207     -1.45414548     -2.70459824
    H      3.37617544     -1.69618891     -4.15315962
    H      5.34236577     -0.20295381     -3.81621663
 
 
 
