#p b3lyp 6-311+g(3df,2p) scf=tight nosymm

i20e

0    1
    C     -0.32217997      2.39855504      0.00279214
    C     -0.12776599      0.98756470      0.58600688
    C     -1.27550702      0.05451989      0.20980793
    C     -1.25078959     -0.70263512     -0.96882060
    C     -2.32845439     -1.52647324     -1.30377472
    C     -3.44324993     -1.60595079     -0.46217969
    C     -3.47427808     -0.85460527      0.71676606
    C     -2.39571419     -0.02961845      1.04832708
    H     -0.38229811     -0.65245731     -1.62003317
    H     -2.29573374     -2.11002870     -2.22199280
    H     -4.28005425     -2.25157771     -0.72178912
    H     -4.33607479     -0.91115383      1.37917390
    H     -2.42272868      0.56127780      1.96224291
    C      1.25325189      0.41612916      0.29258818
    C      1.88538294     -0.33958556      1.29254856
    C      3.13505452     -0.92230889      1.07215838
    C      3.77752924     -0.75511511     -0.15963322
    C      3.15877157     -0.00364483     -1.16220704
    C      1.90417570      0.57579009     -0.94084726
    H      1.38550511     -0.47375620      2.25103879
    H      3.60770629     -1.50423294      1.86116280
    H      4.75245962     -1.20571038     -0.33469982
    H      3.65044437      0.13303624     -2.12357752
    H      1.43449303      1.14993163     -1.73397851
    H     -0.18158394      1.15016841      1.67096186
    H      0.55106410      3.04384169      0.17191032
    F     -0.56423144      2.37472309     -1.35719207
    F     -1.41519427      3.00331659      0.59323974
 
 
 
