#p b3lyp 6-311+g(3df,2p) scf=tight nosymm

i20p

0    1
    C      0.61937297     -0.47198242     -1.95086038
    C     -0.61937297      0.47198242     -1.95086038
    C     -1.47639934      0.36311351     -0.71957986
    C      1.47639934     -0.36311351     -0.71957986
    C     -1.19713962      1.11686961      0.42884143
    C     -1.96642013      0.94588279      1.58178180
    C     -3.00762766      0.01099850      1.60197025
    C     -3.28485665     -0.74688654      0.45914196
    C     -2.52489649     -0.56598450     -0.69989715
    H     -0.38059985      1.83288418      0.41134972
    H     -1.74795824      1.53794030      2.46836227
    H     -3.60322973     -0.12324275      2.50294712
    H     -4.09657221     -1.47167065      0.46706200
    H     -2.73710758     -1.15328486     -1.59135110
    C      1.19713962     -1.11686961      0.42884143
    C      1.96642013     -0.94588279      1.58178180
    C      3.00762766     -0.01099850      1.60197025
    C      3.28485665      0.74688654      0.45914196
    C      2.52489649      0.56598450     -0.69989715
    H      0.38059985     -1.83288418      0.41134972
    H      1.74795824     -1.53794030      2.46836227
    H      3.60322973      0.12324275      2.50294712
    H      4.09657221      1.47167065      0.46706200
    H      2.73710758      1.15328486     -1.59135110
    H     -1.20602621      0.23604572     -2.84898421
    F     -0.11499167      1.78122842     -2.11078386
    F      0.11499167     -1.78122842     -2.11078386
    H      1.20602621     -0.23604572     -2.84898421
 
 
 
