#p b3lyp 6-311+g(3df,2p) scf=tight nosymm

i21e

0    1
    C     -0.08287796      3.82848899     -0.10483915
    C      0.18541107      2.86220844     -1.31386323
    C      0.27061264      1.50497927     -0.56456578
    C      0.02004711      1.97665306      0.92588036
    C      1.20910660      2.75872539      1.43900594
    C      1.16519076      3.91972901      0.77287206
    C     -0.98023369     -2.40564048      0.35791733
    C     -1.33046536     -3.14555201     -0.77739640
    C     -0.50285126     -4.17709855     -1.23770672
    C      0.68556368     -4.47119762     -0.56345207
    C      1.04238315     -3.73374007      0.57348720
    C      0.21475928     -2.70626009      1.03069484
    O     -0.96594219      3.03262818      0.70043561
   Cl     -0.83220634      5.40157229     -0.55216861
    C     -0.59656588      0.76449370      1.61748481
    N     -1.16532645      0.02682374      0.61368819
    C     -0.93219334      0.54440519     -0.74005056
    C     -1.83660811     -1.24965048      0.83676956
    O     -0.56648231      0.49287985      2.81000388
    C      1.58715486      0.75301825     -0.76526912
    H     -0.66263802      2.90822188     -2.00387985
    H      1.10612234      3.11695746     -1.84761856
    H      1.96695279      2.38149736      2.11620047
    H      1.87160201      4.74174100      0.75343529
    H     -2.25764023     -2.91424772     -1.30124929
    H     -0.78550885     -4.74706760     -2.12082838
    H      1.33059179     -5.27252169     -0.91860472
    H      1.96358646     -3.96515914      1.10513122
    H      0.48487213     -2.12917300      1.91361104
    H     -0.70188705     -0.29004393     -1.41464980
    H     -1.82385783      1.07327721     -1.10425210
    H     -2.80153448     -1.24353479      0.31141554
    H     -2.02311897     -1.32105276      1.91443343
    H      2.44112864      1.39266998     -0.51438935
    H      1.68453819      0.43730790     -1.81204677
    H      1.61831481     -0.14633826     -0.13563632
 
 
 
