#p b3lyp 6-311+g(3df,2p) scf=tight nosymm

i24p

1    1
    C     -2.80776384     -0.95770051     -0.26956483
    C     -2.50775939     -0.37857764     -1.66507472
    C     -0.99788909     -0.11353045     -1.61892142
    C     -0.71849483      0.34149531     -0.14438704
    C     -2.01024719      0.00286747      0.64641905
    C      0.57270533     -0.00457913      0.41582862
    C      1.74987907      0.09267834     -0.43619425
    C      0.74272294     -0.19431616      1.87360628
    C      2.06055028      1.65748774     -0.36652838
   Si      3.35623652     -0.99521594     -0.08296243
    H      1.47267248     -0.09047178     -1.48109778
    C      0.82694213      2.39433266     -0.90542950
    H      2.29075979      1.95539432      0.66213613
    H      2.94964457      1.84973355     -0.97712332
    C     -0.45253035      2.03078916     -0.14282207
    H      0.97873582      3.47919580     -0.81721183
    H      0.71619800      2.17274525     -1.97212912
    C     -0.51446308      2.67999114      1.23899410
    H     -1.34071191      2.31898037     -0.71834292
    H     -1.34415805      2.29768827      1.84206165
    H      0.41580700      2.54814739      1.80174598
    H     -0.67289963      3.75722155      1.10709563
    C      4.30812444     -0.89495684     -1.71811314
    C      4.36786082     -0.25500296      1.34142715
    C      2.78294818     -2.76331873      0.29195304
    H      5.24204075     -1.46917958     -1.64573544
    H      3.72525832     -1.31163653     -2.55068138
    H      4.57766698      0.13908481     -1.97262889
    H      5.34874721     -0.74932367      1.37966415
    H      4.55210635      0.81835587      1.20016477
    H      3.89962197     -0.39821374      2.32394412
    H      3.64905898     -3.43609039      0.35756023
    H      2.24612866     -2.83340947      1.24748652
    H      2.12680376     -3.14861864     -0.50088241
    H      1.75977837      0.03150551      2.20483126
    H      0.00023686      0.34721139      2.46424575
    H      0.56595567     -1.26972781      2.06023219
    C     -4.26795664     -1.07992438      0.10848650
    C     -5.14800541      0.12766558     -0.10814085
    C     -4.74319219     -2.22421089      0.61591834
    H     -6.14724563     -0.03680233      0.30806389
    H     -4.72898910      1.03022315      0.36111292
    H     -5.25753633      0.34747279     -1.17974451
    H     -5.78809878     -2.32637853      0.90351725
    H     -4.10166083     -3.09492862      0.74879115
    H     -2.34564722     -1.95400634     -0.20618087
    H     -2.78757075     -1.05556996     -2.47879541
    H     -3.05604391      0.56236590     -1.80121773
    H     -0.45546808     -1.04764882     -1.81242725
    H     -0.66624171      0.61895699     -2.35915109
    H     -1.82538867     -0.43247101      1.63147746
    H     -2.59922867      0.91422055      0.79472447
 
 
 
