#p b3lyp 6-311+g(3df,2p) scf=tight nosymm

i5p

0    1
    C     -3.05716438      0.23943137      0.83300986
    C     -3.74671682     -0.96247797      0.66097193
    C     -3.10448924     -2.04618601      0.05330089
    C     -1.77835799     -1.92121935     -0.36769790
    C     -1.07150267     -0.71882062     -0.21375096
    C     -1.73400427      0.37083149      0.38760001
    C      0.39306501     -0.65405631     -0.57931139
    C      1.29348549     -0.96649175      0.64909697
    C      2.76264994     -0.86331192      0.30088771
    C      3.38510643      0.46069128      0.20544403
    C      2.81098067      1.63320874      0.52423406
    C     -1.04496286      1.69958620      0.59918389
    C     -0.79964045      2.57267537     -0.57865203
    C     -1.25734587      2.31726669     -1.81263423
    O     -0.72332126      2.07117366      1.72363083
    C      3.49068160     -1.96886940      0.04333309
    H     -4.77698688     -1.05191828      0.99932690
    H     -3.63279926     -2.98735159     -0.08687118
    H     -1.27134203     -2.77035633     -0.82496272
    H     -3.54473575      1.08836643      1.30865154
    H      0.65852023      0.33343749     -0.96970018
    H      0.61238136     -1.38756103     -1.36541227
    H      1.06543123     -1.97929627      1.00319519
    H      1.03872977     -0.27288471      1.46024418
    H      4.54063532     -1.90097655     -0.23997744
    H      3.05403377     -2.96365420      0.11941104
    H      4.41843759      0.46337320     -0.14909201
    H      3.36501436      2.56531024      0.43278551
    H      1.79408852      1.70133201      0.90344583
    H     -0.23961009      3.48179593     -0.35852542
    H     -1.82532726      1.41252303     -2.02400759
    H     -1.07493421      3.00442915     -2.63715813
 
 
 
