#p b3lyp 6-311+g(3df,2p) scf=tight nosymm

i7p

0    1
    C     -4.15324401     -1.68877853      0.63418251
    C     -5.42960769     -0.82312398      0.68859819
    C     -5.07851212      0.66823653      0.75162476
    C     -4.20386420      1.05688249     -0.45772184
    C     -2.96547415      0.18791909     -0.57371162
    C     -3.22740198     -1.26841504     -0.49466847
    C      1.03567896      2.06320084     -1.19680056
    C      0.75601260      0.60199752     -0.90783303
    C     -0.46608626      0.05383979     -0.71155144
    C     -1.73349284      0.74983433     -0.68963197
    C      2.05596420      2.67934138     -0.20345472
    C      2.03108504     -0.19051095     -0.83577145
    C      3.33292419      1.82396945     -0.07409301
    C      2.99327638      0.36512902      0.26369697
    C      2.03072016     -1.70772586     -0.58977808
    C      4.17225359     -0.62837228      0.11733208
    C      2.35611927      0.26821503      1.66409605
    C      3.47425160     -2.00874925     -0.07632564
    C     -2.72567454     -2.15745999     -1.36690887
    O     -6.24804744      1.49675616      0.84511336
    C      5.21318082     -0.61027582      1.23738072
    H     -4.41102526     -2.75078007      0.53678692
    H     -3.61646945     -1.56535020      1.58880525
    H     -6.03231389     -1.00141635     -0.21668938
    H     -6.04177612     -1.09262098      1.55845448
    H     -4.52019187      0.86961460      1.67544134
    H     -4.82936938      0.92435833     -1.35944926
    H     -3.93215873      2.11724173     -0.39094705
    H      0.12085865      2.66464992     -1.20666035
    H      1.47106899      2.12740373     -2.20864897
    H     -0.51442219     -1.01988485     -0.54244607
    H     -1.70601267      1.83937873     -0.73197128
    H      2.31598855      3.69299974     -0.53714971
    H      1.58038911      2.77848677      0.78117707
    H      2.56538692     -0.01282095     -1.78713757
    H      3.87815130      1.83869089     -1.03125010
    H      3.99752099      2.25281462      0.68974556
    H      1.77475354     -2.26979532     -1.49536349
    H      1.29213497     -1.96808360      0.17752155
    H      4.67677484     -0.36506068     -0.82542474
    H      1.37937670      0.76208655      1.68647148
    H      2.20777021     -0.77638124      1.96138629
    H      3.00637639      0.74427709      2.40865681
    H      4.03802908     -2.63697266     -0.77631832
    H      3.43816514     -2.54693728      0.87995954
    H     -2.95735748     -3.21880441     -1.27982666
    H     -2.08213345     -1.84403486     -2.18600501
    H     -6.76151173      1.35173885      0.03671268
    H      4.76303039     -0.90798477      2.19320229
    H      6.03092947     -1.31011296      1.01802118
    H      5.64797541      0.39138973      1.35917157
 
 
 
