#p b3lyp 6-311+g(3df,2p) scf=tight nosymm

i9p

0    1
    C     -2.95600477     -0.58997297     -0.54831288
    C     -1.82007476      0.34471260     -1.03249062
    C     -0.47105955     -0.40769161     -0.90156106
    C     -0.25459639     -0.46416744      0.66493474
    C     -1.50287683      0.27361826      1.21243839
    C     -2.73958219     -0.63517893      1.00627183
    C     -1.73532973      1.35693711      0.13407704
    C      0.68956663      0.29815128     -1.61459907
    C      2.05148274     -0.30999465     -1.23447496
    C      2.25834501     -0.43889112      0.31155263
    C      1.07637193      0.17084467      1.08561127
    C      3.59064317      0.17847808      0.75662621
    H     -2.88711523     -1.58279862     -1.01050111
    H     -3.93860847     -0.16950045     -0.79658562
    H     -1.98589250      0.76768026     -2.03031442
    H     -0.56151866     -1.42443840     -1.30885983
    H     -0.25414901     -1.50861535      1.00708867
    H     -1.37943769      0.63213966      2.24114403
    H     -2.56037741     -1.65271097      1.37587511
    H     -3.61151993     -0.23152042      1.53609055
    H     -0.90093547      2.06145166      0.03950565
    H     -2.66546764      1.92078946      0.28336934
    H      0.54436156      0.24344346     -2.70225214
    H      0.68053813      1.36442862     -1.34957392
    H      2.85268032      0.30653659     -1.66635570
    H      2.13945182     -1.30321736     -1.69675978
    H      2.28005633     -1.51007989      0.56297043
    H      1.22950577      0.02896494      2.16467904
    H      1.04693771      1.25649979      0.91024802
    H      3.59978771      1.25644886      0.53788651
    H      4.43625921     -0.28045324      0.22599849
    H      3.74855819      0.04810611      1.83627315
 
 
 
