#p b3lyp 6-311+g(3df,2p) scf=tight nosymm

8

0    1
    C      0.00000000      0.00000000      0.00000000
    H      0.62850991     -0.62850991      0.62850991
    H     -0.62850991      0.62850991      0.62850991
    H     -0.62850991     -0.62850991     -0.62850991
    H      0.62850991      0.62850991     -0.62850991
 
 
 
