#p b3lyp 6-311+g(3df,2p) scf=tight nosymm

IP_64

1     2
   Si     -0.00009601     -0.10647443     -0.05114931
    H      0.00422029      1.73628894     -0.33848201
    H      0.00023202      1.76914472      0.44688447
    H      1.28884962     -0.27261494      0.65932316
    H     -1.29062660     -0.26602326      0.65749492
 
 
 
