#p b3lyp 6-311+g(3df,2p) scf=tight nosymm

IP_72

1     2
    C      0.69418983      0.00000000     -0.00000006
    C     -0.69418983      0.00000000      0.00000006
    H     -1.25663630     -0.90339302      0.23020332
    H     -1.25663612      0.90339303     -0.23020375
    H      1.25663613      0.90339301      0.23020377
    H      1.25663629     -0.90339304     -0.23020330
 
 
 
