#p b3lyp 6-311+g(3df,2p) scf=tight nosymm

01

0    1
    N     -1.57871845     -0.04661101      0.00000000
    N      1.57871845      0.04661101      0.00000000
    H     -2.15862158      0.13639604      0.80956523
    H     -0.84947124      0.65819316      0.00000000
    H     -2.15862158      0.13639604     -0.80956523
    H      2.15862158     -0.13639604     -0.80956523
    H      0.84947124     -0.65819316      0.00000000
    H      2.15862158     -0.13639604      0.80956523
 
 
 
