#p b3lyp 6-311+g(3df,2p) scf=tight nosymm

03

0    1
    C     -1.88889652     -0.17969205      0.00000000
    C      1.88889652      0.17969205      0.00000000
    O     -1.17043534     -1.16659032      0.00000000
    O     -1.49328044      1.07368935      0.00000000
    O      1.49328044     -1.07368935      0.00000000
    O      1.17043534      1.16659032      0.00000000
    H     -0.49883313      1.10719530      0.00000000
    H     -2.97948880     -0.25882908      0.00000000
    H      2.97948880      0.25882908      0.00000000
    H      0.49883313     -1.10719530      0.00000000
 
 
 
