#p b3lyp 6-311+g(3df,2p) scf=tight nosymm

03a

0    1
    C     -0.28270968     -0.29484668      0.00000000
    O      0.11290643      0.95853467      0.00000000
    O      0.43575152     -1.28174496      0.00000000
    H     -1.37330199     -0.37398371      0.00000000
    H      1.10735371      0.99204068      0.00000000
 
 
 
