#p b3lyp 6-311+g(3df,2p) scf=tight nosymm

05

0    1
    O     -1.46633196      1.01216958      0.00000000
    O     -0.59722309      5.48640840      0.00000000
    O      1.46633196     -1.01216958      0.00000000
    O      0.59722309     -5.48640840      0.00000000
    C      1.27690391      4.00617740      0.00000000
    C     -0.12860053      4.36215613      0.00000000
    C     -0.62814655      1.91426831      0.00000000
    C      0.62814655     -1.91426831      0.00000000
    C     -1.63672943     -2.70527728      0.00000000
    C     -1.27690391     -4.00617740      0.00000000
    C      0.12860053     -4.36215613      0.00000000
    C      1.63672943      2.70527728      0.00000000
    N      0.72050948      1.68826925      0.00000000
    N     -0.97772326      3.23964419      0.00000000
    N     -0.72050948     -1.68826925      0.00000000
    N      0.97772326     -3.23964419      0.00000000
    H      1.02325178      0.70618217      0.00000000
    H     -1.97002736      3.43238598      0.00000000
    H      2.01035092      4.79386581      0.00000000
    H      2.66906269      2.38834228      0.00000000
    H     -2.01035092     -4.79386581      0.00000000
    H     -1.02325178     -0.70618217      0.00000000
    H      1.97002736     -3.43238598      0.00000000
    H     -2.66906269     -2.38834228      0.00000000
 
 
 
