#p b3lyp 6-311+g(3df,2p) scf=tight nosymm

06a

0    1
    O      1.39078378     -2.27008044      0.00000000
    N      1.32421623      0.01286468      0.00000000
    C     -1.39731378      0.02121283      0.00000000
    C     -0.69483964      1.24865260      0.00000000
    C      0.67049169      1.19894086      0.00000000
    C      0.71105119     -1.23272538      0.00000000
    C     -0.72716937     -1.17259342      0.00000000
    H     -2.47938908      0.02315429      0.00000000
    H     -1.20363418      2.19866594      0.00000000
    H      1.29551128      2.08032189      0.00000000
    H     -1.25169664     -2.11627794      0.00000000
    H      2.36198851      0.00786410      0.00000000
 
 
 
