#p b3lyp 6-311+g(3df,2p) scf=tight nosymm

07a

0    1
    N     -1.95178372      0.56106705      0.00000000
    N     -0.03332925      2.02368880      0.00000000
    N      1.20212138     -1.34637904      0.00000000
    N      2.04324345      0.73974538      0.00000000
    N     -1.81549134     -1.75738750      0.00000000
    C     -1.33757743      1.76324633      0.00000000
    C      0.18821585     -0.41697699      0.00000000
    C      2.29673234     -0.60429316      0.00000000
    C      0.67816800      0.88872545      0.00000000
    C     -1.21282633     -0.56026716      0.00000000
    H     -2.00723668      2.61399825      0.00000000
    H      3.30214041     -0.99077811      0.00000000
    H      2.71743303      1.48693443      0.00000000
    H     -2.82778811     -1.82173909      0.00000000
    H     -1.24202160     -2.57958464      0.00000000
 
 
 
