#p b3lyp 6-311+g(3df,2p) scf=tight nosymm

08

0    1
    C      0.00000000      0.00000000     -1.85916154
    C      0.00000000      0.00000000      1.85916154
    H      0.88862133     -0.51304576     -1.49459314
    H      0.00000000      1.02609153     -1.49459314
    H      0.00000000      0.00000000     -2.94828472
    H     -0.88862133     -0.51304576     -1.49459314
    H      0.00000000      0.00000000      2.94828472
    H     -0.88862133      0.51304576      1.49459314
    H      0.88862133      0.51304576      1.49459314
    H      0.00000000     -1.02609153      1.49459314
 
 
 
