#p b3lyp 6-311+g(3df,2p) scf=tight nosymm

13a

0    1
    N     -0.36375828      1.28966034      0.19492378
    N      0.27071201     -0.76329295      1.02762691
    H     -0.64992046      1.46751231     -1.85265535
    H     -0.07968679     -0.91439420     -2.31901467
    H      0.59579668     -1.30977062      1.81636257
    H     -0.48186323      2.27795799      0.34980452
    C     -0.37810723      0.77363256     -1.07141223
    C     -0.06692210     -0.51551257     -1.31949849
    C      0.33864012     -1.38108174     -0.22759804
    C      0.00160958      0.56166413      1.31171808
    O      0.72700811     -2.53463434     -0.33305479
    O      0.08649158      1.04825909      2.42279771
 
 
 
