#p b3lyp 6-311+g(3df,2p) scf=tight nosymm

14b

0    1
    C      1.20625460     -0.69643142      0.00000000
    C      1.20625460      0.69643142      0.00000000
    C      0.00000000      1.39286284      0.00000000
    C     -1.20625460      0.69643142      0.00000000
    C     -1.20625460     -0.69643142      0.00000000
    C      0.00000000     -1.39286284      0.00000000
    H      2.14344169      1.23751664      0.00000000
    H      0.00000000      2.47503328      0.00000000
    H     -2.14344169      1.23751664      0.00000000
    H     -2.14344169     -1.23751664      0.00000000
    H      0.00000000     -2.47503328      0.00000000
    H      2.14344169     -1.23751664      0.00000000
 
 
 
