#p b3lyp 6-311+g(3df,2p) scf=tight nosymm

15b

0    1
    N      1.02702899     -0.21730670     -1.45545622
    N     -1.24412387      0.00570122     -1.24590076
    H      2.17744562     -0.20892473      0.27710532
    H     -0.07266141      1.09001484      2.57805574
    H     -0.40860111     -0.63257769      2.69597031
    H      1.26281270     -0.06181457      2.53167508
    H     -2.14983819      0.12002692     -1.68059411
    H      1.83689758     -0.28495258     -2.04902242
    C      0.10916573      0.02933386      0.73721426
    C      0.23369737      0.10795015      2.22155841
    C     -1.21690337      0.13767468      0.14673720
    C      1.16462174     -0.13453417     -0.09170896
    C     -0.17996175     -0.12520058     -2.11107770
    O     -0.28821947     -0.14984720     -3.32631823
    O     -2.25136056      0.32445655      0.77176209
 
 
 
