#p b3lyp 6-311+g(3df,2p) scf=tight nosymm

16

0    1
    C      0.00000000     -0.66757818     -1.76775602
    C      0.00000000      0.66757818     -1.76775602
    C      0.00000000      0.00000000      3.25740731
    C      0.00000000      0.00000000      2.05014395
    H     -0.92362127      1.23225337     -1.76928212
    H      0.92362127      1.23225337     -1.76928212
    H      0.92362127     -1.23225337     -1.76928212
    H     -0.92362127     -1.23225337     -1.76928212
    H      0.00000000      0.00000000      0.98425568
    H      0.00000000      0.00000000      4.32083359
 
 
 
