#p b3lyp 6-311+g(3df,2p) scf=tight nosymm

16a

0    1
    C     -0.66757855      0.00000000      0.00000000
    C      0.66757855      0.00000000      0.00000000
    H      1.23225347      0.92362119      0.00000000
    H      1.23225347     -0.92362119      0.00000000
    H     -1.23225347     -0.92362119      0.00000000
    H     -1.23225347      0.92362119      0.00000000
 
 
 
