#p b3lyp 6-311+g(3df,2p) scf=tight nosymm

17a

0    1
    C     -1.20755714      0.69718344      0.00000000
    C     -1.20755714     -0.69718344      0.00000000
    C      0.00000000     -1.39436687      0.00000000
    C      1.20755714     -0.69718344      0.00000000
    C      1.20755714      0.69718344      0.00000000
    C      0.00000000      1.39436687      0.00000000
    H     -2.14397851      1.23782657      0.00000000
    H     -2.14397851     -1.23782657      0.00000000
    H      0.00000000     -2.47565314      0.00000000
    H      2.14397851     -1.23782657      0.00000000
    H      2.14397851      1.23782657      0.00000000
    H      0.00000000      2.47565314      0.00000000
 
 
 
