#p b3lyp 6-311+g(3df,2p) scf=tight nosymm

18

0    1
    C     -0.80893998      0.73922310     -1.20710830
    C     -1.49580341      0.61989005      0.00000000
    C     -0.80893998      0.73922310      1.20710830
    C      0.56456836      0.97798446      1.20707385
    C      1.25138498      1.09710132      0.00000000
    C      0.56456836      0.97798446     -1.20707385
    H     -1.34160863      0.64397615     -2.14328993
    H     -2.55988007      0.42858260      0.00000000
    H     -1.34160863      0.64397615      2.14328993
    H      1.09714214      1.07083319      2.14369568
    H      2.31670046      1.28297592      0.00000000
    H      1.09714214      1.07083319     -2.14369568
    H      0.68989100     -2.92260406     -0.80607315
    H      0.68989100     -2.92260406      0.80607315
    H     -0.02524203     -1.72159600      0.00000000
    N      0.11073430     -2.72577955      0.00000000
 
 
 
