#p b3lyp 6-311+g(3df,2p) scf=tight nosymm

18a

0    1
    C     -1.20712843      0.69693593      0.00000000
    C     -1.20712843     -0.69693593      0.00000000
    C      0.00000000     -1.39387185      0.00000000
    C      1.20712843     -0.69693593      0.00000000
    C      1.20712843      0.69693593      0.00000000
    C      0.00000000      1.39387185      0.00000000
    H     -2.14356161      1.23758588      0.00000000
    H     -2.14356161     -1.23758588      0.00000000
    H      0.00000000     -2.47517175      0.00000000
    H      2.14356161     -1.23758588      0.00000000
    H      2.14356161      1.23758588      0.00000000
    H      0.00000000      2.47517175      0.00000000
 
 
 
