#p b3lyp 6-311+g(3df,2p) scf=tight nosymm

19a

0    1
    C     -1.20774225     -0.69729032      0.00000000
    C     -1.20774225      0.69729032      0.00000000
    C      0.00000000      1.39458063      0.00000000
    C      1.20774225      0.69729032      0.00000000
    C      1.20774225     -0.69729032      0.00000000
    C      0.00000000     -1.39458063      0.00000000
    H     -2.14407074      1.23787982      0.00000000
    H      0.00000000      2.47575964      0.00000000
    H      2.14407074      1.23787982      0.00000000
    H      2.14407074     -1.23787982      0.00000000
    H      0.00000000     -2.47575964      0.00000000
    H     -2.14407074     -1.23787982      0.00000000
 
 
 
