#p b3lyp 6-311+g(3df,2p) scf=tight nosymm

20

0    1
    C      0.00000000      0.00000000      1.05872819
    C      0.00000000     -1.20600876      1.75736735
    C      0.00000000     -1.20717706      3.15128399
    C      0.00000000      0.00000000      3.84826887
    C      0.00000000      1.20717706      3.15128399
    C      0.00000000      1.20600876      1.75736735
    C     -1.39406375      0.00000000     -2.45446048
    C     -0.69704702      1.20723812     -2.45493587
    C      0.69704702      1.20723812     -2.45493587
    C      1.39406375      0.00000000     -2.45446048
    C      0.69704702     -1.20723812     -2.45493587
    C     -0.69704702     -1.20723812     -2.45493587
    H      0.00000000      0.00000000     -0.02188791
    H      0.00000000     -2.14163943      1.21411459
    H      0.00000000     -2.14356623      3.69268893
    H      0.00000000      0.00000000      4.92984409
    H      0.00000000      2.14356623      3.69268893
    H      0.00000000      2.14163943      1.21411459
    H     -2.47540013      0.00000000     -2.45063009
    H     -1.23823249      2.14356623     -2.45398458
    H      1.23823249      2.14356623     -2.45398458
    H      2.47540013      0.00000000     -2.45063009
    H      1.23823249     -2.14356623     -2.45398458
    H     -1.23823249     -2.14356623     -2.45398458
 
 
 
