#p b3lyp 6-311+g(3df,2p) scf=tight nosymm

20a

0    1
    C     -1.20729462     -0.69703188      0.00000000
    C     -1.20729462      0.69703188      0.00000000
    C      0.00000000      1.39406375      0.00000000
    C      1.20729462      0.69703188      0.00000000
    C      1.20729462     -0.69703188      0.00000000
    C      0.00000000     -1.39406375      0.00000000
    H     -2.14375940     -1.23770007      0.00000000
    H     -2.14375940      1.23770007      0.00000000
    H      0.00000000      2.47540013      0.00000000
    H      2.14375940      1.23770007      0.00000000
    H      2.14375940     -1.23770007      0.00000000
    H      0.00000000     -2.47540013      0.00000000
 
 
 
