#p b3lyp 6-311+g(3df,2p) scf=tight nosymm

20b

0    1
    C     -1.20818642     -0.69754676      0.00000000
    C     -1.20818642      0.69754676      0.00000000
    C      0.00000000      1.39509351      0.00000000
    C      1.20818642      0.69754676      0.00000000
    C      1.20818642     -0.69754676      0.00000000
    C      0.00000000     -1.39509351      0.00000000
    H     -2.14402727     -1.23785472      0.00000000
    H     -2.14402727      1.23785472      0.00000000
    H      0.00000000      2.47570944      0.00000000
    H      2.14402727      1.23785472      0.00000000
    H      2.14402727     -1.23785472      0.00000000
    H      0.00000000     -2.47570944      0.00000000
 
 
 
