#p b3lyp 6-311+g(3df,2p) scf=tight nosymm

21a

0    1
    C      1.47459704     -1.93893413      0.00000000
    C      0.10083331     -2.03106157      0.00000000
    C     -0.40252308     -0.69669481      0.00000000
    C      0.72664372      0.16997714      0.00000000
    C      0.60110862      1.56215563      0.00000000
    C     -0.68194145      2.08703399      0.00000000
    C     -1.81474271      1.24786771      0.00000000
    C     -1.68910844     -0.13133256      0.00000000
    H      2.79723408     -0.28549828      0.00000000
    H      2.22171185     -2.71492976      0.00000000
    H     -0.46786731     -2.94521770      0.00000000
    H      1.47183594      2.20434108      0.00000000
    H     -0.81704849      3.16017516      0.00000000
    H     -2.79989126      1.69432604      0.00000000
    H     -2.56731038     -0.76390346      0.00000000
    N      1.84646855     -0.61830448      0.00000000
 
 
 
