#p b3lyp 6-311+g(3df,2p) scf=tight nosymm

21b

0    1
    C      1.20740099      0.69709329      0.00000000
    C      1.20740099     -0.69709329      0.00000000
    C      0.00000000     -1.39418657      0.00000000
    C     -1.20740099     -0.69709329      0.00000000
    C     -1.20740099      0.69709329      0.00000000
    C      0.00000000      1.39418657      0.00000000
    H      2.14388119      1.23777038      0.00000000
    H      2.14388119     -1.23777038      0.00000000
    H      0.00000000     -2.47554076      0.00000000
    H     -2.14388119     -1.23777038      0.00000000
    H     -2.14388119      1.23777038      0.00000000
    H      0.00000000      2.47554076      0.00000000
 
 
 
