#p b3lyp 6-311+g(3df,2p) scf=tight nosymm

p2p

1    1
    C      0.00000000     -0.68853297     -0.15409298
    C      0.00000000      0.68853297     -0.15409298
    H     -0.93383912     -1.24463399     -0.16583998
    H      0.93383912     -1.24463399     -0.16583998
    H      0.00000000      0.00000000      0.97154587
    H     -0.93383912      1.24463399     -0.16583998
    H      0.93383912      1.24463399     -0.16583998
 
 
 
