#p b3lyp 6-311+g(3df,2p) scf=tight nosymm

p6p

1    1
    C     -2.91537202     -0.13360261      0.00000000
    C     -1.54792796      0.39365157      0.00000000
    C     -0.40221667     -0.36505620      0.00000000
    C      0.85219323      0.24276651      0.00000000
    C      2.08168199     -0.45649967      0.00000000
    C      3.25965420      0.21147175      0.00000000
    H     -3.45984555      0.26389228     -0.86755850
    H     -3.45984555      0.26389228      0.86755850
    H     -2.96377008     -1.22055612      0.00000000
    H     -1.44055575      1.47710086      0.00000000
    H     -0.47149135     -1.44799497      0.00000000
    H      0.89387923      1.33004482      0.00000000
    H      2.06744238     -1.54103132      0.00000000
    H      3.29896373      1.29565727      0.00000000
    H      4.20721015     -0.31373645      0.00000000
 
 
 
