%chk=G2-105.chk
#p b3lyp/6-31+g(d,p) scf=tight iop(5/33=1) extraoverlay

acetamide ch3cohn2 b3lyp/6-31g* geometry

0    1
  C     -1.36609600     -0.33788400      0.00004700
  C      0.07762800      0.14758500     -0.00326300
  O      0.36732800      1.33397100      0.00345800
  N      1.02920500     -0.83716200     -0.02044400
  H      1.99826600     -0.55961000      0.04974900
  H      0.80218200     -1.81512800      0.06969300
  H     -1.47088200     -1.42007800     -0.12556000
  H     -1.83513700     -0.04414500      0.94482900
  H     -1.90667500      0.16911800     -0.80397600
 
 
 
