%chk=G2-107.chk
#p b3lyp/6-31+g(d,p) scf=tight iop(5/33=1) extraoverlay

Cyanogen. NCCN. D*h symm. b3lyp/6-31G* Geometry

0    1
  N      0.00000000      0.00000000      1.85399093
  C      0.00000000      0.00000000      0.69022793
  C      0.00000000      0.00000000     -0.69022793
  N      0.00000000      0.00000000     -1.85399093
 
 
 
