%chk=G2-131.chk
#p b3lyp/6-31+g(d,p) scf=tight iop(5/33=1) extraoverlay

Trimethyl Amine. (CH3)3N. C3v symm. b3lyp/6-31G* Geom.

0    1
  N      0.00000000      0.00000000      0.37157900
  C      0.00000000      1.38894000     -0.06104700
  C      1.20285700     -0.69447000     -0.06104700
  C     -1.20285700     -0.69447000     -0.06104700
  H      0.00000000      1.50507700     -1.16422000
  H      0.88691100      1.89859600      0.33174100
  H     -0.88691100      1.89859600      0.33174100
  H      1.30343500     -0.75253900     -1.16422000
  H      1.20077700     -1.71738500      0.33174100
  H      2.08768800     -0.18121100      0.33174100
  H     -1.30343500     -0.75253900     -1.16422000
  H     -2.08768800     -0.18121100      0.33174100
  H     -1.20077700     -1.71738500      0.33174100
 
 
 
