%chk=G2-106.chk
#p b3lyp/6-31+g(d,p) scf=tight iop(5/33=1) extraoverlay

Aziridine. (cyclic CH2CH2NH). C2v symm. b3lyp/6-31G* Geometry

0    1
  C      0.03428065      0.39746274      0.74250164
  N      0.04710701     -0.87461944      0.00000000
  C      0.03428065      0.39746274     -0.74250164
  H     -0.88659949     -1.28523755      0.00000000
  H      0.94979758      0.61602899      1.28756005
  H      0.94979758      0.61602899     -1.28756005
  H     -0.87705627      0.70298139      1.25468223
  H     -0.87705627      0.70298139     -1.25468223
 
 
 
