%chk=G2-102.chk
#p b3lyp/6-31+g(d,p) scf=tight iop(5/33=1) extraoverlay

Methylsilane. CH3-SiH3. C3v symm. b3lyp/6-31G* Geometry

0    1
  C      0.00000000      0.00000000     -1.25067500
 Si      0.00000000      0.00000000      0.63791600
  H      0.00000000     -1.02265600     -1.64355600
  H     -0.88564600      0.51132800     -1.64355600
  H      0.88564600      0.51132800     -1.64355600
  H      0.00000000      1.39203300      1.16796700
  H     -1.20553600     -0.69601600      1.16796700
  H      1.20553600     -0.69601600      1.16796700
 
 
 
