%chk=G2-122.chk
#p b3lyp/6-31+g(d,p) scf=tight iop(5/33=1) extraoverlay

Vinyl chloride, H2C=CHCl. Cs symm. b3lyp/6-31G* Geom.

0    1
  C      0.00000000      0.76547400      0.00000000
  C      1.29620500      1.05103600      0.00000000
 Cl     -0.62744100     -0.86959300      0.00000000
  H     -0.78770900      1.51042900      0.00000000
  H      2.06346200      0.28388600      0.00000000
  H      1.61350900      2.08971400      0.00000000
 
 
 
