%chk=G2-123.chk
#p b3lyp/6-31+g(d,p) scf=tight iop(5/33=1) extraoverlay

h2c=chcn B3LYP 6-31G* geometry

0    1
  C      1.32223500      0.98376200      0.00000000
  C      0.00000000      0.77488100      0.00000000
  C     -0.58032000     -0.53319900      0.00000000
  H      2.03225200      0.16272400      0.00000000
  H      1.72327700      1.99227800      0.00000000
  H     -0.70195700      1.60545700      0.00000000
  N     -1.07215200     -1.58758900      0.00000000
 
 
 
