%chk=G2-125.chk
#p b3lyp/6-31+g(d,p) scf=tight iop(5/33=1) extraoverlay

CH3COOH ACETIC ACID single bonds TRANS B3LYP 6-31G* geometry

0    1
  C      0.00000000      0.15595500      0.00000000
  O      0.18944200      1.35110200      0.00000000
  O     -1.24691800     -0.38428300      0.00000000
  H     -1.86508300      0.37068200      0.00000000
  C      1.06257300     -0.91423500      0.00000000
  H      2.04834000     -0.44883600      0.00000000
  H      0.95055600     -1.55335800      0.88201100
  H      0.95055600     -1.55335800     -0.88201100
 
 
 
