%chk=G2-132.chk
#p b3lyp/6-31+g(d,p) scf=tight iop(5/33=1) extraoverlay

FURAN  B3LYP 6-31G* geometry

0    1
  O      0.00000000      0.00000000      1.16108700
  C      0.00000000      1.09489300      0.34741600
  C      0.00000000     -1.09489300      0.34741600
  C      0.00000000      0.71790500     -0.95999400
  C      0.00000000     -0.71790500     -0.95999400
  H      0.00000000      2.05010800      0.84993300
  H      0.00000000     -2.05010800      0.84993300
  H      0.00000000      1.37460300     -1.81881900
  H      0.00000000     -1.37460300     -1.81881900
 
 
 
