%chk=G2-116.chk
#p b3lyp/6-31+g(d,p) scf=tight iop(5/33=1) extraoverlay

Thiooxirane. (cyclic CH2-S-CH2 ring). C2v symm. b3lyp/6-31G* Geom.

0    1
  C      0.74116781      0.80549981      0.00000000
  S      0.00000000     -0.87539901      0.00000000
  C     -0.74116781      0.80549981      0.00000000
  H      1.25840731      1.08509659     -0.91452220
  H      1.25840731      1.08509659      0.91452220
  H     -1.25840731      1.08509659      0.91452220
  H     -1.25840731      1.08509659     -0.91452220
 
 
 
