%chk=G2-17.chk
#p b3lyp/6-31+g(d,p) scf=tight iop(5/33=1) extraoverlay

SIH4 //b3lyp/6-31G*

0    1
 Si      0.00000000      0.00000000      0.00000000
  H      0.85793500      0.85793500      0.85793500
  H     -0.85793500     -0.85793500      0.85793500
  H     -0.85793500      0.85793500     -0.85793500
  H      0.85793500     -0.85793500     -0.85793500
 
 
 
