%chk=G2-133.chk
#p b3lyp/6-31+g(d,p) scf=tight iop(5/33=1) extraoverlay

Thiophene b3lyp 6-31G* geometry

0    1
  S      0.00000000      0.00000000      1.19969700
  C      0.00000000      1.24365600     -0.01158800
  C      0.00000000     -1.24365600     -0.01158800
  C      0.00000000      0.71489900     -1.27261400
  C      0.00000000     -0.71489900     -1.27261400
  H      0.00000000      2.28512200      0.28036400
  H      0.00000000     -2.28512200      0.28036400
  H      0.00000000      1.32026500     -2.17272900
  H      0.00000000     -1.32026500     -2.17272900
 
 
 
