%chk=G2-141.chk
#p b3lyp/6-31+g(d,p) scf=tight iop(5/33=1) extraoverlay

H2COH C1   b3lyp/6-31G*  geometry

0    2
  C      0.68577500      0.02929300     -0.07793700
  O     -0.67121900     -0.12566900      0.02885300
  H     -1.09605900      0.73724600     -0.08907400
  H      1.12440300      0.98255600      0.21277000
  H      1.22675800     -0.89020500      0.11310200
 
 
 
