%chk=G2-16.chk
#p b3lyp/6-31+g(d,p) scf=tight iop(5/33=1) extraoverlay

SIH3 c3v //b3lyp/6-31G*

0    2
 Si      0.00000000      0.00000000      0.08130900
  H      0.00000000      1.41590600     -0.37944400
  H      1.22621000     -0.70795300     -0.37944400
  H     -1.22621000     -0.70795300     -0.37944400
 
 
 
