%chk=G2-10.chk
#p b3lyp/6-31+g(d,p) scf=tight iop(5/33=1) extraoverlay

AMMONIA, //b3lyp/6-31G*

0    1
  N      0.00000000      0.00000000      0.11938000
  H      0.00000000      0.93852400     -0.27855300
  H      0.81278600     -0.46926200     -0.27855300
  H     -0.81278600     -0.46926200     -0.27855300
 
 
 
