%chk=G2-135.chk
#p b3lyp/6-31+g(d,p) scf=tight iop(5/33=1) extraoverlay

C2v Pyridine B3LYP 6-31G* geometry

0    1
  N      0.00000000      0.00000000      1.42101500
  C      0.00000000      0.00000000     -1.38560900
  C      0.00000000      1.14216300      0.72194900
  C      0.00000000     -1.14216300      0.72194900
  C      0.00000000     -1.19863600     -0.67305900
  C      0.00000000      1.19863600     -0.67305900
  H      0.00000000      0.00000000     -2.47248900
  H      0.00000000      2.05974700      1.30866100
  H      0.00000000     -2.05974700      1.30866100
  H      0.00000000     -2.15793100     -1.18248500
  H      0.00000000      2.15793100     -1.18248500
 
 
 
