%chk=G2-129.chk
#p b3lyp/6-31+g(d,p) scf=tight iop(5/33=1) extraoverlay

Isopropyl alcohol, (CH3)2CH-OH. Gauche isomer. C1 symm. b3lyp/6-31G* Geom.

0    1
  O      0.03410900      1.37000800     -0.16739200
  C     -0.00152500      0.04188800      0.36451600
  H      0.86732600      1.77652800      0.11748400
  H      0.00694500      0.08561400      1.46738900
  C     -1.32527000     -0.56243300     -0.08812200
  C      1.20653300     -0.77236800     -0.10347600
  H     -1.35869900     -0.62451700     -1.18172800
  H      1.22067000     -0.83521000     -1.19741900
  H     -2.16079200      0.06145100      0.24440300
  H      2.14593700     -0.30736800      0.22353100
  H     -1.45469800     -1.56939500      0.32332500
  H      1.18201300     -1.78969100      0.30464500
 
 
 
