%chk=G2-142.chk
#p b3lyp/6-31+g(d,p) scf=tight iop(5/33=1) extraoverlay

ch3o CS, 2A' b3lyp 6-31G* geometry

0    2
  C     -0.01087300     -0.57540100      0.00000000
  O     -0.01087300      0.79391800      0.00000000
  H      1.06058200     -0.86659900      0.00000000
  H     -0.45417700     -1.01616900      0.90884400
  H     -0.45417700     -1.01616900     -0.90884400
 
 
 
