%chk=G2-113.chk
#p b3lyp/6-31+g(d,p) scf=tight iop(5/33=1) extraoverlay

Glyoxal, O=CH-CH=O. Trans, C2h symm. b3lyp/6-31G* Geom.

0    1
  C     -0.32878500      0.68798200      0.00000000
  C      0.32878500     -0.68798200      0.00000000
  O      0.32878500      1.70310500      0.00000000
  H     -1.43785200      0.67164100      0.00000000
  O     -0.32878500     -1.70310500      0.00000000
  H      1.43785200     -0.67164100      0.00000000
 
 
 
