%chk=G2-103.chk
#p b3lyp/6-31+g(d,p) scf=tight iop(5/33=1) extraoverlay

Formic Acid. HCOOH. HOCO cis. Cs symm. b3lyp/6-31G* Geometry

0    1
  O     -1.03457300     -0.44116900      0.00000000
  C      0.00000000      0.42181200      0.00000000
  O      1.16387900      0.11076800      0.00000000
  H     -0.64968000     -1.33959900      0.00000000
  H     -0.38477300      1.45194000      0.00000000
 
 
 
