%chk=G2-19.chk
#p b3lyp/6-31+g(d,p) scf=tight iop(5/33=1) extraoverlay

PH3 c3v //b3lyp/6-31G*

0    1
  P      0.00000000      0.00000000      0.12877900
  H      0.00000000      1.19650000     -0.64389700
  H      1.03620000     -0.59825000     -0.64389700
  H     -1.03620000     -0.59825000     -0.64389700
 
 
 
