%chk=G2-120.chk
#p b3lyp/6-31+g(d,p) scf=tight iop(5/33=1) extraoverlay

Vinyl fluoride, H2C=CHF. Cs symm. b3lyp/6-31G* Geom.

0    1
  C      0.00000000      0.43278700      0.00000000
  C      1.19059000     -0.14817300      0.00000000
  F     -1.14898400     -0.27173500      0.00000000
  H     -0.18326400      1.50362700      0.00000000
  H      1.29445000     -1.22786900      0.00000000
  H      2.08612900      0.46216900      0.00000000
 
 
 
