%chk=G2-130.chk
#p b3lyp/6-31+g(d,p) scf=tight iop(5/33=1) extraoverlay

Methyl ethyl ether. CH3-CH2-O-CH3. Trans. Cs symm. b3lyp/6-31G* Geom.

0    1
  O      0.01496000     -0.71011800      0.00000000
  C      0.00000000      0.70655400      0.00000000
  C      1.32081500     -1.24164100      0.00000000
  C     -1.44670300      1.17268200      0.00000000
  H      0.53214500      1.09241200      0.88734000
  H      0.53214500      1.09241200     -0.88734000
  H      1.22781200     -2.33113100      0.00000000
  H      1.88957800     -0.93247700     -0.89272100
  H      1.88957800     -0.93247700      0.89272100
  H     -1.96906800      0.79975000     -0.88692800
  H     -1.96906800      0.79975000      0.88692800
  H     -1.49747600      2.26713900      0.00000000
 
 
 
