%chk=G2-146.chk
#p b3lyp/6-31+g(d,p) scf=tight iop(5/33=1) extraoverlay

(ch3)2ch Cs 2A' b3lyp 6-31g* geometry

0    2
  C      0.01164500      0.53450800      0.00000000
  C      0.01164500     -0.19743900      1.30102700
  C      0.01164500     -0.19743900     -1.30102700
  H     -0.24574200      1.59138000      0.00000000
  H      0.25690000      0.46149600      2.14176700
  H      0.25690000      0.46149600     -2.14176700
  H     -0.97224300     -0.64942400      1.52699800
  H      0.73340500     -1.02664900      1.29724800
  H     -0.97224300     -0.64942400     -1.52699800
  H      0.73340500     -1.02664900     -1.29724800
 
 
 
