%chk=G2-111.chk
#p b3lyp/6-31+g(d,p) scf=tight iop(5/33=1) extraoverlay

OXIRANE B3LYP 6-31G* geometry

0    1
  C      0.00000000      0.73454200     -0.37219900
  O      0.00000000      0.00000000      0.85534400
  C      0.00000000     -0.73454200     -0.37219900
  H      0.92068400      1.27495300     -0.59409000
  H     -0.92068400      1.27495300     -0.59409000
  H     -0.92068400     -1.27495300     -0.59409000
  H      0.92068400     -1.27495300     -0.59409000
 
 
 
