%chk=G2-59.chk
#p b3lyp/6-31+g(d,p) scf=tight iop(5/33=1) extraoverlay

alcl3 B3LYP 6-31G* geometry

0    1
 Al      0.00000000      0.00000000      0.00000000
 Cl      0.00000000      2.08744800      0.00000000
 Cl      1.80778300     -1.04372400      0.00000000
 Cl     -1.80778300     -1.04372400      0.00000000
 
 
 
