%chk=G2-52.chk
#p b3lyp/6-31+g(d,p) scf=tight iop(5/33=1) extraoverlay

Methyl chloride, CH3Cl C3v //b3lyp/6-31g*

0    1
  C      0.00000000      0.00000000     -1.13907200
 Cl      0.00000000      0.00000000      0.66413100
  H      0.00000000      1.03368200     -1.48526800
  H      0.89519500     -0.51684100     -1.48526800
  H     -0.89519500     -0.51684100     -1.48526800
 
 
 
