%chk=G2-56.chk
#p b3lyp/6-31+g(d,p) scf=tight iop(5/33=1) extraoverlay

BF3 PLANAR B3LYP 6-31G* geometry

0    1
  B      0.00000000      0.00000000      0.00000000
  F      0.00000000      1.31772300      0.00000000
  F      1.14118200     -0.65886100      0.00000000
  F     -1.14118200     -0.65886100      0.00000000
 
 
 
