%chk=G2-61.chk
#p b3lyp/6-31+g(d,p) scf=tight iop(5/33=1) extraoverlay

ccl4  B3LYP 6-31G* geometry

0    1
  C      0.00000000      0.00000000      0.00000000
 Cl      1.03498800      1.03498800      1.03498800
 Cl     -1.03498800     -1.03498800      1.03498800
 Cl     -1.03498800      1.03498800     -1.03498800
 Cl      1.03498800     -1.03498800     -1.03498800
 
 
 
