%chk=G2-60.chk
#p b3lyp/6-31+g(d,p) scf=tight iop(5/33=1) extraoverlay

cf4  B3LYP 6-31G* geometry

0    1
  C      0.00000000      0.00000000      0.00000000
  F      0.76751500      0.76751500      0.76751500
  F     -0.76751500     -0.76751500      0.76751500
  F     -0.76751500      0.76751500     -0.76751500
  F      0.76751500     -0.76751500     -0.76751500
 
 
 
