%chk=G2-65.chk
#p b3lyp/6-31+g(d,p) scf=tight iop(5/33=1) extraoverlay

sif4  B3LYP 6-31G* geometry

0    1
 Si      0.00000000      0.00000000      0.00000000
  F      0.91166700      0.91166700      0.91166700
  F     -0.91166700     -0.91166700      0.91166700
  F     -0.91166700      0.91166700     -0.91166700
  F      0.91166700     -0.91166700     -0.91166700
 
 
 
