%chk=G2-64.chk
#p b3lyp/6-31+g(d,p) scf=tight iop(5/33=1) extraoverlay

COF2 B3LYP 6-31G* geometry

0    1
  O      0.00000000      0.00000000      1.32323800
  C      0.00000000      0.00000000      0.14297500
  F      0.00000000      1.06878300     -0.63576400
  F      0.00000000     -1.06878300     -0.63576400
 
 
 
