%chk=G2-69.chk
#p b3lyp/6-31+g(d,p) scf=tight iop(5/33=1) extraoverlay

nf3 c3v  B3LYP 6-31G* geometry

0    1
  N      0.00000000      0.00000000      0.48706200
  F      0.00000000      1.24058500     -0.12627500
  F      1.07437800     -0.62029300     -0.12627500
  F     -1.07437800     -0.62029300     -0.12627500
 
 
 
