%chk=G2-6.chk
#p b3lyp/6-31+g(d,p) scf=tight iop(5/33=1) extraoverlay

Methyl radical, D3h, //b3lyp/6-31G*

0    2
  C      0.00000000      0.00000000      0.00000000
  H      0.00000000      1.08274400      0.00000000
  H      0.93768400     -0.54137200      0.00000000
  H     -0.93768400     -0.54137200      0.00000000
 
 
 
