%chk=G2-74.chk
#p b3lyp/6-31+g(d,p) scf=tight iop(5/33=1) extraoverlay

CF2=CF2 D2H SINGLET B3LYP 6-31G* geometry

0    1
  C      0.00000000      0.00000000      0.66275900
  C      0.00000000      0.00000000     -0.66275900
  F      0.00000000      1.10897800      1.38663400
  F      0.00000000     -1.10897800      1.38663400
  F      0.00000000      1.10897800     -1.38663400
  F      0.00000000     -1.10897800     -1.38663400
 
F-C-C=123.13412096
 
 
