%chk=G2-7.chk
#p b3lyp/6-31+g(d,p) scf=tight iop(5/33=1) extraoverlay

ch4 //b3lyp/6-31G*

0    1
  C      0.00000000      0.00000000      0.00000000
  H      0.63125300      0.63125300      0.63125300
  H     -0.63125300     -0.63125300      0.63125300
  H      0.63125300     -0.63125300     -0.63125300
  H     -0.63125300      0.63125300     -0.63125300
 
 
 
