%chk=G2-77.chk
#p b3lyp/6-31+g(d,p) scf=tight iop(5/33=1) extraoverlay

PROPYNE C3V B3LYP 6-31G* geometry

0    1
  C      0.00000000      0.00000000      0.21902300
  C      0.00000000      0.00000000      1.42618500
  C      0.00000000      0.00000000     -1.24170100
  H      0.00000000      0.00000000      2.49223400
  H      0.00000000      1.02244900     -1.63775700
  H      0.88546700     -0.51122400     -1.63775700
  H     -0.88546700     -0.51122400     -1.63775700
 
 
 
