%chk=G2-73.chk
#p b3lyp/6-31+g(d,p) scf=tight iop(5/33=1) extraoverlay

CLF3, C2V B3LYP 6-31G* geometry -758.2017685

0    1
 Cl      0.00000000      0.00000000      0.37339700
  F      0.00000000      0.00000000     -1.27764800
  F      0.00000000      1.72642500      0.28617100
  F      0.00000000     -1.72642500      0.28617100
 
 
 
