%chk=G2-84.chk
#p b3lyp/6-31+g(d,p) scf=tight iop(5/33=1) extraoverlay

Dimethyl acetylene (2-butyne). D3h (eclipsed). B3LYP/6-31G* Geometry

0    1
  C      0.00000000      0.00000000      2.06609200
  C      0.00000000      0.00000000      0.60458500
  C      0.00000000      0.00000000     -0.60458500
  C      0.00000000      0.00000000     -2.06609200
  H      0.00000000      1.02152500      2.46614500
  H     -0.88466700     -0.51076300      2.46614500
  H      0.88466700     -0.51076300      2.46614500
  H      0.00000000      1.02152500     -2.46614500
  H      0.88466700     -0.51076300     -2.46614500
  H     -0.88466700     -0.51076300     -2.46614500
 
 
 
