%chk=G2-86.chk
#p b3lyp/6-31+g(d,p) scf=tight iop(5/33=1) extraoverlay

Bicyclo[1.1.0]butane. C2v symm. b3lyp/6-31G* Geometry

0    1
  C      1.13774915      0.00000000      0.31212312
  C     -1.13774915      0.00000000      0.31212312
  C      0.00000000     -0.74682305     -0.31576265
  C      0.00000000      0.74682305     -0.31576265
  H      1.24792144      0.00000000      1.40116684
  H      2.08530464      0.00000000     -0.22615450
  H     -1.24792144      0.00000000      1.40116684
  H     -2.08530464      0.00000000     -0.22615450
  H      0.00000000     -1.43084391     -1.15317520
  H      0.00000000      1.43084391     -1.15317520
 
 
 
