%chk=G2-87.chk
#p b3lyp/6-31+g(d,p) scf=tight iop(5/33=1) extraoverlay

CYCLOBUTENE  b3lyp 6-31G* geometry

0    1
  C      0.00000000      0.67023800      0.81472400
  C      0.00000000     -0.67023800      0.81472400
  C      0.00000000      0.78602400     -0.69961300
  C      0.00000000     -0.78602400     -0.69961300
  H      0.00000000      1.42005000      1.60195300
  H      0.00000000     -1.42005000      1.60195300
  H      0.88979000      1.24691400     -1.14631000
  H     -0.88979000      1.24691400     -1.14631000
  H     -0.88979000     -1.24691400     -1.14631000
  H      0.88979000     -1.24691400     -1.14631000
 
 
 
