%chk=G2-83.chk
#p b3lyp/6-31+g(d,p) scf=tight iop(5/33=1) extraoverlay

TRANS-1,3-BUTADIENE C2H B3LYP 6-31G* geometry

0    1
  C      0.60193200      1.75131300      0.00000000
  C      0.60193200      0.41077200      0.00000000
  C     -0.60193200     -0.41077200      0.00000000
  C     -0.60193200     -1.75131300      0.00000000
  H      1.52444100      2.32389600      0.00000000
  H     -0.32530200      2.32038700      0.00000000
  H      1.55158700     -0.12518500      0.00000000
  H     -1.55158700      0.12518500      0.00000000
  H      0.32530200     -2.32038700      0.00000000
  H     -1.52444100     -2.32389600      0.00000000
 
 
 
