%chk=G2-89.chk
#p b3lyp/6-31+g(d,p) scf=tight iop(5/33=1) extraoverlay

Isobutene. Single bonds trans. C2v symm. b3lyp/6-31G* Geometry

0    1
  C      0.00000000      0.00000000     -1.45944180
  C      0.00000000      0.00000000     -0.12277126
  H      0.92480527      0.00000000     -2.03126563
  H     -0.92480527      0.00000000     -2.03126563
  C      1.27826484      0.00000000      0.67889395
  H      2.16303443      0.00000000      0.03494754
  H      1.33279189      0.88005969      1.33479678
  H      1.33279189     -0.88005969      1.33479678
  C     -1.27826484      0.00000000      0.67889395
  H     -2.16303443      0.00000000      0.03494754
  H     -1.33279189     -0.88005969      1.33479678
  H     -1.33279189      0.88005969      1.33479678
 
 
 
