%chk=G2-80.chk
#p b3lyp/6-31+g(d,p) scf=tight iop(5/33=1) extraoverlay

PROPENE CS B3LYP 6-31G* geometry

0    1
  C      1.29317300      0.14995600      0.00000000
  C      0.00000000      0.47490800      0.00000000
  H      1.62125000     -0.88794400      0.00000000
  H      2.07392800      0.90590100      0.00000000
  H     -0.27770500      1.53012500      0.00000000
  C     -1.13915300     -0.50428600      0.00000000
  H     -0.77918900     -1.53867000      0.00000000
  H     -1.78120000     -0.36644100      0.88052800
  H     -1.78120000     -0.36644100     -0.88052800
 
 
 
