%chk=G2-82.chk
#p b3lyp/6-31+g(d,p) scf=tight iop(5/33=1) extraoverlay

PROPANE C2V B3LYP 6-31G* geometry

0    1
  C      0.00000000      0.00000000      0.58683200
  C      0.00000000      1.27687100     -0.26001300
  C      0.00000000     -1.27687100     -0.26001300
  H     -0.87761100      0.00000000      1.24755700
  H      0.87761100      0.00000000      1.24755700
  H      0.00000000      2.17595100      0.36702500
  H      0.00000000     -2.17595100      0.36702500
  H      0.88465400      1.32154100     -0.90749900
  H     -0.88465400      1.32154100     -0.90749900
  H     -0.88465400     -1.32154100     -0.90749900
  H      0.88465400     -1.32154100     -0.90749900
 
 
 
