%chk=G2-85.chk
#p b3lyp/6-31+g(d,p) scf=tight iop(5/33=1) extraoverlay

Methylene cyclopropane. C2v symm. b3lyp/6-31G* Geom.

0    1
  C      0.00000000      0.00000000      0.31802487
  C      0.77014588      0.00000000     -0.93391089
  C     -0.77014588      0.00000000     -0.93391089
  C      0.00000000      0.00000000      1.64042758
  H      1.27943648     -0.91271515     -1.24057947
  H      1.27943648      0.91271515     -1.24057947
  H     -1.27943648      0.91271515     -1.24057947
  H     -1.27943648     -0.91271515     -1.24057947
  H      0.92720993      0.00000000      2.20926694
  H     -0.92720993      0.00000000      2.20926694
 
 
 
