%chk=G2-93.chk
#p b3lyp/6-31+g(d,p) scf=tight iop(5/33=1) extraoverlay

Benzene B3LYP 6-31G* geometry

0    1
  C      0.00000000      1.39661500      0.00000000
  C      1.20950400      0.69830700      0.00000000
  C      1.20950400     -0.69830700      0.00000000
  C      0.00000000     -1.39661500      0.00000000
  C     -1.20950400     -0.69830700      0.00000000
  C     -1.20950400      0.69830700      0.00000000
  H      0.00000000      2.48362200      0.00000000
  H      2.15088000      1.24181100      0.00000000
  H      2.15088000     -1.24181100      0.00000000
  H      0.00000000     -2.48362200      0.00000000
  H     -2.15088000     -1.24181100      0.00000000
  H     -2.15088000      1.24181100      0.00000000
 
 
 
