%chk=G2-95.chk
#p b3lyp/6-31+g(d,p) scf=tight iop(5/33=1) extraoverlay

HCF3 TRI-FLUOROMETHANE  B3LYP/6-31G* geometry

0    1
  C      0.00000000      0.00000000      0.33867800
  H      0.00000000      0.00000000      1.43144900
  F      0.00000000      1.25818100     -0.12827800
  F      1.08961700     -0.62909100     -0.12827800
  F     -1.08961700     -0.62909100     -0.12827800
 
 
 
