%chk=G2-98.chk
#p b3lyp/6-31+g(d,p) scf=tight iop(5/33=1) extraoverlay

METHYLAMINE b3lyp 6-31G* geometry

0    1
  C      0.05170100      0.70420600      0.00000000
  N      0.05170100     -0.76114800      0.00000000
  H     -0.94291100      1.18448300      0.00000000
  H     -0.45910300     -1.10280000      0.81235800
  H     -0.45910300     -1.10280000     -0.81235800
  H      0.59450200      1.06195700      0.88176500
  H      0.59450200      1.06195700     -0.88176500
 
 
 
