%chk=G2-94.chk
#p b3lyp/6-31+g(d,p) scf=tight iop(5/33=1) extraoverlay

DIFLUOROMETHANE C2V B3LYP/6-31G* geometry

0    1
  C      0.00000000      0.00000000      0.49931200
  F      0.00000000      1.10901800     -0.28977200
  F      0.00000000     -1.10901800     -0.28977200
  H     -0.90980500      0.00000000      1.11001500
  H      0.90980500      0.00000000      1.11001500
 
 
 
