%chk=G2-92.chk
#p b3lyp/6-31+g(d,p) scf=tight iop(5/33=1) extraoverlay

Spiropentane. D2d symm. b3lyp/6-31G* Geometry

0    1
  C      0.00000000      0.00000000      0.00000000
  C      0.00000000      0.76471800      1.27305900
  C      0.00000000     -0.76471800      1.27305900
  C      0.76471800      0.00000000     -1.27305900
  C     -0.76471800      0.00000000     -1.27305900
  H     -0.91372400      1.27095000      1.57791500
  H      0.91372400      1.27095000      1.57791500
  H     -0.91372400     -1.27095000      1.57791500
  H      0.91372400     -1.27095000      1.57791500
  H      1.27095000     -0.91372400     -1.57791500
  H      1.27095000      0.91372400     -1.57791500
  H     -1.27095000     -0.91372400     -1.57791500
  H     -1.27095000      0.91372400     -1.57791500
 
 
 
