%chk=G2-96.chk
#p b3lyp/6-31+g(d,p) scf=tight iop(5/33=1) extraoverlay

CH2CL2 C2V B3LYP/6-31G* geometry

0    1
  C      0.00000000      0.00000000      0.76779500
 Cl      0.00000000      1.49603200     -0.21666400
 Cl      0.00000000     -1.49603200     -0.21666400
  H     -0.89896500      0.00000000      1.37990700
  H      0.89896500      0.00000000      1.37990700
 
 
 
