%chk=G3-180.chk
#p b3lyp/6-31+g(d,p) scf=tight iop(5/33=1) extraoverlay

Acetic anhydride. Ch3-C(=O)-O-C(=O)-CH3. C2v -> C2 symmetry.
B3-LYP/6-31G(d) Geom. Optimized Energy = -381.727898. Local minimum.

0    1
  O      0.00000000      0.00000000      0.59523066
  C     -0.02936411      1.21556579     -0.09144783
  O      0.43045589      1.36705311     -1.18757603
  C     -0.65784995      2.27236863      0.77902898
  C      0.02936411     -1.21556579     -0.09144783
  O     -0.43045589     -1.36705311     -1.18757603
  C      0.65784995     -2.27236863      0.77902898
  H      0.56654932     -3.24470896      0.29388021
  H      0.17590651     -2.29230356      1.76159926
  H      1.71563311     -2.03531843      0.93871926
  H     -0.56654932      3.24470896      0.29388021
  H     -0.17590651      2.29230356      1.76159926
  H     -1.71563311      2.03531843      0.93871926
 
 
 
