%chk=G3-176.chk
#p b3lyp/6-31+g(d,p) scf=tight iop(5/33=1) extraoverlay

N==C-CH2-CH2-C==N. C2h symmetry.
B3-LYP/6-31G(d) Geom. Optimized Energy = -264.301387. Local minimum.

0    1
  C      0.17370863      0.00000000      1.88198523
  N     -0.18798294      0.00000000      2.98443612
  C      0.60685922      0.00000000      0.48243711
  H      1.23160664     -0.88131283      0.30065198
  H      1.23160664      0.88131283      0.30065198
  C     -0.60685922      0.00000000     -0.48243711
  H     -1.23160664     -0.88131283     -0.30065198
  C     -0.17370863      0.00000000     -1.88198523
  H     -1.23160664      0.88131283     -0.30065198
  N      0.18798294      0.00000000     -2.98443612
 
 
 
