%chk=G3-198.chk
#p b3lyp/6-31+g(d,p) scf=tight iop(5/33=1) extraoverlay

N-methyl pyrrole. cyc-CH=CH-N(CH3)-CH=CH-. Cs symmetry.
B3-LYP/6-31G(d) Geom. Optimized Energy = -249.477846. Local minimum.

0    1
  H      0.00000000      1.06788674     -2.43250505
  N      0.00000000     -0.04020535     -0.62568852
  C      1.11960680     -0.01516928      0.17516484
  H      0.88642523     -0.47571523     -2.46599122
  H     -0.88642523     -0.47571523     -2.46599122
  C     -1.11960680     -0.01516928      0.17516484
  C      0.00000000      0.03073457     -2.07407484
  C      0.71186448      0.01424711      1.49174864
  H      2.10806939     -0.02345916     -0.26300363
  C     -0.71186448      0.01424711      1.49174864
  H     -2.10806939     -0.02345916     -0.26300363
  H      1.36271700      0.01927901      2.35590081
  H     -1.36271700      0.01927901      2.35590081
 
 
 
