%chk=G3-155.chk
#p b3lyp/6-31+g(d,p) scf=tight iop(5/33=1) extraoverlay

para-cyclohexadiene. C6H8. D2h symmetry.
B3-LYP/6-31G(d) Geom. Optimized Energy = -233.418497. Local minimum.

0    1
  H      0.00000000      0.87098522     -2.17776788
  C      0.00000000      0.00000000     -1.50078267
  C      1.25520720      0.00000000      0.66734426
  C     -1.25520720      0.00000000      0.66734426
  C      0.00000000      0.00000000      1.50078267
  C     -1.25520720      0.00000000     -0.66734426
  C      1.25520720      0.00000000     -0.66734426
  H      2.20108072      0.00000000      1.20734658
  H      2.20108072      0.00000000     -1.20734658
  H      0.00000000      0.87098522      2.17776788
  H     -2.20108072      0.00000000     -1.20734658
  H     -2.20108072      0.00000000      1.20734658
  H      0.00000000     -0.87098522     -2.17776788
  H      0.00000000     -0.87098522      2.17776788
 
 
 
