%chk=G3-182.chk
#p b3lyp/6-31+g(d,p) scf=tight iop(5/33=1) extraoverlay

(CH3)2CH-CN. Cs symmetry.
B3-LYP/6-31G(d) Geom. Optimized Energy = -211.383107. Local minimum.

0    1
  H     -0.26228352      2.17805382      0.55180792
  C      0.14818993      1.27936940      1.02161351
  H      1.23966912      1.31956969      0.94398615
  C     -0.39992143      0.00000000      0.35881481
  H     -0.12239279      1.28821590      2.08275642
  C     -0.10344835      0.00000000     -1.08365564
  H     -1.49440524      0.00000000      0.45482924
  C      0.14818993     -1.27936940      1.02161351
  H      1.23966912     -1.31956969      0.94398615
  H     -0.26228352     -2.17805382      0.55180792
  H     -0.12239279     -1.28821590      2.08275642
  N      0.14662275      0.00000000     -2.21746390
 
 
 
