%chk=G3-175.chk
#p b3lyp/6-31+g(d,p) scf=tight iop(5/33=1) extraoverlay

Chlorobenzene C6H6Cl b3lyp/6-31g* = -691.8449872

0    1
  C      0.00000000      0.00000000      0.50359500
  C      0.00000000      0.00000000     -2.27497400
 Cl      0.00000000      0.00000000      2.26483000
  C      0.00000000      1.21605400     -0.17857400
  C      0.00000000     -1.21605400     -0.17857400
  H      0.00000000      0.00000000     -3.36114300
  C      0.00000000     -1.20752000     -1.57448100
  C      0.00000000      1.20752000     -1.57448100
  H      0.00000000      2.14938200      0.37447100
  H      0.00000000     -2.14938200      0.37447100
  H      0.00000000     -2.15150900     -2.11248900
  H      0.00000000      2.15150900     -2.11248900
 
 
 
