%chk=G3-173.chk
#p b3lyp/6-31+g(d,p) scf=tight iop(5/33=1) extraoverlay

pyrimidine C4H4N2 b3lyp/6-31g* = -264.3237243

0    1
  C      0.00000000      0.00000000     -1.30912500
  C      0.00000000      0.00000000      1.35632900
  N      0.00000000      1.19915900     -0.71648200
  N      0.00000000     -1.19915900     -0.71648200
  C      0.00000000      1.18449900      0.62238500
  C      0.00000000     -1.18449900      0.62238500
  H      0.00000000      0.00000000     -2.39756500
  H      0.00000000      0.00000000      2.44159000
  H      0.00000000      2.15451200      1.11744200
  H      0.00000000     -2.15451200      1.11744200
 
 
 
