%chk=G3-168.chk
#p b3lyp/6-31+g(d,p) scf=tight iop(5/33=1) extraoverlay

C6H5-OH (Phenol, Planar Cs)

0    1
  C      0.00188913      0.94105024      0.00000000
  C     -1.20563647      0.23531373      0.00000000
  C     -1.19187780     -1.16076106      0.00000000
  C      0.01656182     -1.85750708      0.00000000
  C      1.21832343     -1.14265037      0.00000000
  C      1.21885339      0.25011278      0.00000000
  O      0.05643836      2.30930638      0.00000000
  H     -0.84810563      2.65831895      0.00000000
  H     -2.15119914      0.77527535      0.00000000
  H     -2.13461588     -1.70158277      0.00000000
  H      0.02355199     -2.94344652      0.00000000
  H      2.16625516     -1.67435649      0.00000000
  H      2.14392562      0.81799106      0.00000000
 
 
 
