%chk=G3-166.chk
#p b3lyp/6-31+g(d,p) scf=tight iop(5/33=1) extraoverlay

t-butanol. (CH3)3C-OH. Cs symm. b3lyp/6-31g* = -233.6709603

0    1
  C      0.00061600      0.01428900      0.00000000
  O     -0.48644900      1.36814100      0.00000000
  C      1.52510300      0.14876600      0.00000000
  C     -0.48644900     -0.70719500      1.26587300
  C     -0.48644900     -0.70719500     -1.26587300
  H     -1.45625600      1.32486100      0.00000000
  H      2.00526400     -0.83573600      0.00000000
  H      1.85654500      0.69926100      0.88653700
  H      1.85654500      0.69926100     -0.88653700
  H     -0.09476800     -1.72954500      1.32316300
  H     -1.58271700     -0.77140500      1.28008900
  H     -0.16623500     -0.16143700      2.15952100
  H     -0.09476800     -1.72954500     -1.32316300
  H     -1.58271700     -0.77140500     -1.28008900
  H     -0.16623500     -0.16143700     -2.15952100
 
 
 
