%chk=G3-192.chk
#p b3lyp/6-31+g(d,p) scf=tight iop(5/33=1) extraoverlay

CH3-CH(OCH3)2. C1 symmetry. More stable conformer.
B3-LYP/6-31G(d) Geom. Optimized Energy = -308.871268. Local minimum.

0    1
  H     -1.87759504     -0.04126184     -1.15051845
  C     -1.88046325     -0.06293676     -0.05673952
  C     -0.46003686     -0.07286984      0.49385663
  H     -0.47246760     -0.19715887      1.58709598
  H     -2.42258193      0.81052993      0.31812207
  H     -2.40436722     -0.96944309      0.25998435
  O      0.23869836      1.14692647      0.32169608
  O      0.20556363     -1.16323639     -0.10282485
  C      0.37399424      1.59493476     -1.02154023
  C      1.46232407     -1.45957149      0.48866013
  H      1.11174454      2.40123557     -1.00292233
  H      1.86499910     -2.32438716     -0.04436897
  H     -0.56971488      1.99265908     -1.41984072
  H      0.73033663      0.79446472     -1.68105642
  H      1.34973815     -1.71491613      1.55378021
  H      2.16090302     -0.61858288      0.40333234
 
 
 
