%chk=G3-167.chk
#p b3lyp/6-31+g(d,p) scf=tight iop(5/33=1) extraoverlay

C6H5-NH2 (Aniline, Cs)

0    1
  C     -0.00133341      0.93878536      0.00000000
  C      0.00235366      0.22132155      1.20831624
  C      0.00235366      0.22132155     -1.20831624
  C      0.01131262     -1.17170662      1.20254288
  C      0.01131262     -1.17170662     -1.20254288
  C      0.01534834     -1.88174595      0.00000000
  N      0.04962046      2.33824482      0.00000000
  H     -0.32427300      2.77324262     -0.83480216
  H     -0.32427300      2.77324262      0.83480216
  H      0.01195619     -1.70557108      2.14972001
  H      0.01195619     -1.70557108     -2.14972001
  H      0.02116024     -2.96765378      0.00000000
  H      0.00402260      0.76349065      2.15171730
  H      0.00402260      0.76349065     -2.15171730
 
 
 
