%chk=G3-152.chk
#p b3lyp/6-31+g(d,p) scf=tight iop(5/33=1) extraoverlay

n-pentane c5h12 b3lyp/6-31g* opt(z-matrix) = -197.7717785

0    1
  C      0.00000000      0.00000000      0.31561300
  C      0.00000000      1.28404500     -0.52365700
  C      0.00000000     -1.28404500     -0.52365700
  C      0.00000000      2.56000600      0.32443900
  C      0.00000000     -2.56000600      0.32443900
  H     -0.87843400      0.00000000      0.97866400
  H      0.87843400      0.00000000      0.97866400
  H     -0.87799900      1.28368700     -1.18540900
  H      0.87799900      1.28368700     -1.18540900
  H      0.87799900     -1.28368700     -1.18540900
  H     -0.87799900     -1.28368700     -1.18540900
  H      0.88464400      2.60537800      0.97169900
  H     -0.88464400      2.60537800      0.97169900
  H     -0.88464400     -2.60537800      0.97169900
  H      0.88464400     -2.60537800      0.97169900
  H      0.00000000      3.45882300     -0.30277500
  H      0.00000000     -3.45882300     -0.30277500
 
 
 
