%chk=G3-169.chk
#p b3lyp/6-31+g(d,p) scf=tight iop(5/33=1) extraoverlay

C4H6O divinyl ether H2C=CH-O-CH=CH2 b3lyp/6-31g* = -231.1963671

0    1
  O      0.00000000      0.00000000      0.32719200
  C      0.00000000      1.17558100     -0.37339700
  C      0.00000000     -1.17558100     -0.37339700
  C      0.00000000      2.35779300      0.23704600
  C      0.00000000     -2.35779300      0.23704600
  H      0.00000000      1.06570400     -1.45756400
  H      0.00000000     -1.06570400     -1.45756400
  H      0.00000000      3.26707300     -0.35168800
  H      0.00000000     -3.26707300     -0.35168800
  H      0.00000000      2.43943800      1.31859200
  H      0.00000000     -2.43943800      1.31859200
 
 
 
