%chk=G3-161.chk
#p b3lyp/6-31+g(d,p) scf=tight iop(5/33=1) extraoverlay

cyclooctatetraene C8H8 b3lyp/6-31g* opt(z-matrix) = -309.5835476

0    1
  C      1.57225700      0.67116600     -0.37050600
  C      1.57225700     -0.67116600     -0.37050600
  C     -1.57225700     -0.67116600     -0.37050600
  C     -1.57225700      0.67116600     -0.37050600
  C      0.67116300     -1.57163100      0.37035600
  C     -0.67116300     -1.57163100      0.37035600
  C     -0.67116300      1.57163100      0.37035600
  C      0.67116300      1.57163100      0.37035600
  H      2.37082000      1.17279800     -0.92012900
  H      2.37082000     -1.17279800     -0.92012900
  H     -2.37082000     -1.17279800     -0.92012900
  H     -2.37082000      1.17279800     -0.92012900
  H      1.17255400     -2.36966300      0.92102600
  H     -1.17255400     -2.36966300      0.92102600
  H     -1.17255400      2.36966300      0.92102600
  H      1.17255400      2.36966300      0.92102600
 
 
 
