%chk=G3-151.chk
#p b3lyp/6-31+g(d,p) scf=tight iop(5/33=1) extraoverlay

cyclopentane twist c5h10 C2 symmetry. b3lyp/6-31g* = -196.5571199

0    1
  C      0.00000000      0.00000000      1.30839500
  C     -0.32843900      0.69470300     -1.03110900
  C      0.32843900     -0.69470300     -1.03110900
  C      0.00000000      1.24299900      0.37172600
  C      0.00000000     -1.24299900      0.37172600
  H      0.87751600      0.00655800      1.96410400
  H     -0.87751600     -0.00655800      1.96410400
  H      0.02707300      1.34484500     -1.83849200
  H     -0.02707300     -1.34484500     -1.83849200
  H     -1.41542300      0.58871700     -1.15225200
  H      1.41542300     -0.58871700     -1.15225200
  H      0.99603700      1.70302600      0.35951900
  H     -0.99603700     -1.70302600      0.35951900
  H     -0.70229600      2.01754500      0.69823400
  H      0.70229600     -2.01754500      0.69823400
 
 
 
