%chk=G3-184.chk
#p b3lyp/6-31+g(d,p) scf=tight iop(5/33=1) extraoverlay

(CH3)2CH-CHO. Cs symmetry.
B3-LYP/6-31G(d) Geom. Optimized Energy = -232.458064. Local minimum.

0    1
  H     -0.47910480      0.43516385      2.17742153
  C     -1.08098663      0.29814445      1.27251989
  H     -1.55904624     -0.68801458      1.32868532
  C     -0.22383339      0.42843479      0.00000000
  H     -1.87512287      1.05291545      1.27521649
  C      0.84623084     -0.64675118      0.00000000
  H      0.29621325      1.39320898      0.00000000
  C     -1.08098663      0.29814445     -1.27251989
  H     -1.55904624     -0.68801458     -1.32868532
  H     -0.47910480      0.43516385     -2.17742153
  H     -1.87512287      1.05291545     -1.27521649
  O      2.04023043     -0.44712518      0.00000000
  H      0.44459783     -1.68952411      0.00000000
 
 
 
