%chk=G3-181.chk
#p b3lyp/6-31+g(d,p) scf=tight iop(5/33=1) extraoverlay

2,5-Dihydrothiophene. C4H6S. C2v symmetry.
B3-LYP/6-31G(d) Geom. Optimized Energy = -554.204319. Local minimum.

0    1
  S      0.62726503      0.92455421      0.57928467
  C     -0.73324231      0.91545863     -0.67715561
  C      0.72863872     -0.92224407      0.67290415
  C     -1.02806338     -0.53370330     -0.94942541
  C     -0.30920851     -1.43736203     -0.28555673
  H     -1.60896866      1.44450747     -0.28170810
  H      1.73814703     -1.25410565      0.40100544
  H     -0.40858286      1.44450747     -1.58151815
  H      0.53776123     -1.25410565      1.70081549
  H     -1.80347323     -0.79620409     -1.66552310
  H     -0.43987110     -2.51036226     -0.40622476
 
 
 
