%chk=G3-189.chk
#p b3lyp/6-31+g(d,p) scf=tight iop(5/33=1) extraoverlay

Tetrahydropyrrole. C4H8NH. Cs symmetry.
B3-LYP/6-31G(d) Geom. Optimized Energy = -212.581750. Local minimum.

0    1
  H     -0.74324913     -2.07512688     -0.35568460
  H     -2.14827678      0.00000000     -0.07375830
  C     -0.44832135      1.16149996      0.17223203
  C      1.02914325      0.77869782     -0.05723591
  C      1.02914325     -0.77869782     -0.05723591
  C     -0.44832135     -1.16149996      0.17223203
  N     -1.17004187      0.00000000     -0.35575296
  H     -0.62752846      1.32511770      1.25259077
  H     -0.74324913      2.07512688     -0.35568460
  H      1.37711004      1.16080717     -1.02161032
  H      1.67802108      1.20005169      0.71674194
  H      1.67802108     -1.20005169      0.71674194
  H      1.37711004     -1.16080717     -1.02161032
  H     -0.62752846     -1.32511770      1.25259077
 
 
 
