%chk=G3-183.chk
#p b3lyp/6-31+g(d,p) scf=tight iop(5/33=1) extraoverlay

CH3-CO-CH2-CH3. Methyl ethyl ketone. Cs -> C1 symmetry.
B3-LYP/6-31G(d) Geom. Optimized Energy = -232.470559. Local minimum.

0    1
  H      1.22801589     -1.82484895      0.88381883
  C      0.59272542     -1.93136829     -0.00045929
  H      1.23712485     -1.82162429     -0.87772399
  C     -0.51667942     -0.88199718     -0.00427695
  H      0.17023604     -2.94158597     -0.00449139
  C     -0.00003564      0.55351210      0.00098218
  H     -1.18087295     -1.00479737      0.86440451
  H     -0.56149477      2.63073471      0.00179178
  H     -1.70220176      1.56726849      0.87562894
  H     -1.69367624      1.57027568     -0.88669170
  H     -1.17185807     -1.00162566     -0.88021965
  O      1.18960365      0.80757073      0.00743917
  C     -1.04969405      1.65412629     -0.00225104
 
 
 
