%chk=G3-159.chk
#p b3lyp/6-31+g(d,p) scf=tight iop(5/33=1) extraoverlay

C6H5-CH3 (Toluene. Cs) b3lyp/6-31g* = -271.5666485

0    1
  C     -0.00462568      0.91391581      0.00000000
  C     -0.00746887      0.19430335      1.20238606
  C     -0.00746887      0.19430335     -1.20238606
  C     -0.00679949     -1.20119020      1.20546218
  C     -0.00679949     -1.20119020     -1.20546218
  C     -0.00574796     -1.90504605      0.00000000
  C      0.02748536      2.42540383      0.00000000
  H      1.05931054      2.80193422      0.00000000
  H     -0.46752058      2.83746539     -0.88600666
  H     -0.46752058      2.83746539      0.88600666
  H     -0.01141326     -1.73859068      2.15043866
  H     -0.01141326     -1.73859068     -2.15043866
  H     -0.00841475     -2.99181476      0.00000000
  H     -0.01223907      0.73456589      2.14686447
  H     -0.01223907      0.73456589     -2.14686447
 
 
 
