%chk=G3-197.chk
#p b3lyp/6-31+g(d,p) scf=tight iop(5/33=1) extraoverlay

2-methyl thiophene. cyc-CH=CH-S-CH(CH3)=CH-. Cs symmetry.
B3-LYP/6-31G(d) Geom. Optimized Energy = -592.321465. Local minimum.

0    1
  H     -0.33955267      0.00000000     -2.72527003
  S     -1.15390477      0.00000000     -0.39767352
  C      0.11441083      0.00000000      0.80946611
  H      2.27060064      0.00000000      0.76677211
  H      2.15506945      0.00000000     -1.86767185
  C      0.00015722      0.00000000     -1.69830689
  C      1.28075936      0.00000000     -1.22531800
  C      1.34242792      0.00000000      0.20354586
  C     -0.20254015      0.00000000      2.27580213
  H      0.72684556      0.00000000      2.85409883
  H     -0.78088885     -0.88386610      2.57185594
  H     -0.78088885      0.88386610      2.57185594
 
 
 
