%chk=G3-188.chk
#p b3lyp/6-31+g(d,p) scf=tight iop(5/33=1) extraoverlay

n-Butyl chloride. CH3-CH2-CH2-CH2-Cl. Cs symmetry.
B3-LYP/6-31G(d) Geom. Optimized Energy = -618.053851. Local minimum.

0    1
  H     -1.13223924      0.88505282      2.97634899
  C     -0.48484507      0.00000000      2.98469071
  H      0.06891546      0.00000000      3.93005634
  C      0.46813010      0.00000000      1.78492153
  H     -1.13223924     -0.88505282      2.97634899
  H      1.12573258      0.87894567      1.83973849
  C     -0.27599890      0.00000000      0.44046178
  H      1.12573258     -0.87894567      1.83973849
  H     -0.92739980      0.88044423      0.37402678
  H     -0.92739980     -0.88044423      0.37402678
  C      0.68832306      0.00000000     -0.73766947
  H      1.32457289      0.88818371     -0.74165441
 Cl     -0.18964138      0.00000000     -2.33302373
  H      1.32457289     -0.88818371     -0.74165441
 
 
 
