%chk=G3-186.chk
#p b3lyp/6-31+g(d,p) scf=tight iop(5/33=1) extraoverlay

Tetrahydrothiophene. C4H8S. C2 symmetry.
B3-LYP/6-31G(d) Geom. Optimized Energy = -555.436613. Local minimum.

0    1
  H      0.99370828      1.81359101      0.02034781
  S      0.00000000      0.00000000      1.31955779
  C     -0.00155773     -1.35217945      0.05059913
  C      0.34329272     -0.68596134     -1.28727699
  C     -0.34329272      0.68596134     -1.28727699
  C      0.00155773      1.35217945      0.05059913
  H     -0.72580700      2.11518259      0.33984401
  H     -0.99370828     -1.81359101      0.02034781
  H      0.72580700     -2.11518259      0.33984401
  H      1.42984009     -0.55502373     -1.36536331
  H      0.02245016     -1.30842779     -2.13122366
  H     -1.42984009      0.55502373     -1.36536331
  H     -0.02245016      1.30842779     -2.13122366
 
 
 
