%chk=G3-196.chk
#p b3lyp/6-31+g(d,p) scf=tight iop(5/33=1) extraoverlay

Tetramethylsilane. Si(CH3)4. Td symmetry.
B3-LYP/6-31G(d) Geom. Optimized Energy = -449.191778. Local minimum.

0    1
  C      1.09477400      1.09477400      1.09477400
 Si      0.00000000      0.00000000      0.00000000
  C     -1.09477400     -1.09477400      1.09477400
  C     -1.09477400      1.09477400     -1.09477400
  C      1.09477400     -1.09477400     -1.09477400
  H      1.74245200      1.74245200      0.49135100
  H      1.74245200      0.49135100      1.74245200
  H      0.49135100      1.74245200      1.74245200
  H     -1.74245200     -1.74245200      0.49135100
  H     -1.74245200     -0.49135100      1.74245200
  H     -0.49135100     -1.74245200      1.74245200
  H     -1.74245200      0.49135100     -1.74245200
  H     -0.49135100      1.74245200     -1.74245200
  H     -1.74245200      1.74245200     -0.49135100
  H      0.49135100     -1.74245200     -1.74245200
  H      1.74245200     -1.74245200     -0.49135100
  H      1.74245200     -0.49135100     -1.74245200
 
 
 
