%chk=G3-165.chk
#p b3lyp/6-31+g(d,p) scf=tight iop(5/33=1) extraoverlay

CH3-C(=O)-OCH3. trans C-C-O-C, Z-Methyl Acetate. b3lyp/6-31g* = -268.3884801

0    1
  C      0.00000000      0.49380100      0.00000000
  O     -1.18080500      0.76281800      0.00000000
  O      0.47696600     -0.77357900      0.00000000
  C      1.13330800      1.49311500      0.00000000
  C     -0.52356200     -1.80476000      0.00000000
  H      0.72529500      2.50430900      0.00000000
  H      1.76538100      1.34638400      0.88198300
  H      1.76538100      1.34638400     -0.88198300
  H      0.02650300     -2.74634400      0.00000000
  H     -1.15516300     -1.72879000      0.88923200
  H     -1.15516300     -1.72879000     -0.88923200
 
 
 
