%chk=G3-174.chk
#p b3lyp/6-31+g(d,p) scf=tight iop(5/33=1) extraoverlay

dimethyl sulfone (CH3)2SO2 C2H6O2S b3lyp/6-31g* = -628.4008203

0    1
  S      0.00000000      0.00000000      0.19462000
  O     -1.27843800      0.00000000      0.92046800
  O      1.27843800      0.00000000      0.92046800
  C      0.00000000      1.42145400     -0.92561200
  C      0.00000000     -1.42145400     -0.92561200
  H      0.00000000      2.30726800     -0.28601000
  H      0.00000000     -2.30726800     -0.28601000
  H      0.90230600      1.40499700     -1.54051300
  H     -0.90230600      1.40499700     -1.54051300
  H      0.90230600     -1.40499700     -1.54051300
  H     -0.90230600     -1.40499700     -1.54051300
 
 
 
