%chk=G3-149.chk
#p b3lyp/6-31+g(d,p) scf=tight iop(5/33=1) extraoverlay

C4H6 isomer. CH3-CH=C=CH2. C1 symmetry.
B3-LYP/6-31G(d) Geom. Optimized Energy = -155.975820. Local minimum.

0    1
  H      0.61008296      1.98191544     -1.47391201
  C      0.37893350      1.68978876     -0.44136404
  H      1.32082882      1.52127775      0.08777666
  C     -0.49361807      0.45714408     -0.41462759
  H     -0.13302644      2.54049208      0.02674330
  C     -0.17740398     -0.67403565      0.16305051
  H     -1.45885902      0.52943885     -0.91947618
  C      0.14194605     -1.80273193      0.74135618
  H      0.67085364     -2.59020806      0.20670789
  H     -0.10902496     -2.00390755      1.78166997
 
 
 
