%chk=G3-179.chk
#p b3lyp/6-31+g(d,p) scf=tight iop(5/33=1) extraoverlay

CH3-CH=CH-CHO. Cs symmetry.
B3-LYP/6-31G(d) Geom. Optimized Energy = -231.234183. Local minimum.

0    1
  H      0.12671082     -0.87928530      2.99252964
  C     -0.21125034      0.00000000      2.42788149
  H     -1.30508667      0.00000000      2.40885699
  C      0.37181744      0.00000000      1.05048408
  H      0.12671082      0.87928530      2.99252964
  C     -0.32254198      0.00000000     -0.09813587
  H      1.46250908      0.00000000      0.98979538
  H     -1.41083882      0.00000000     -0.11517073
  C      0.35952730      0.00000000     -1.39973897
  O     -0.20725474      0.00000000     -2.47658021
  H      1.47271816      0.00000000     -1.33884357
 
 
 
