%chk=G3-154.chk
#p b3lyp/6-31+g(d,p) scf=tight iop(5/33=1) extraoverlay

1,3-cyclohexadiene. C6H8. C2 symmetry.
B3-LYP/6-31G(d) Geom. Optimized Energy = -233.418932. Local minimum.

0    1
  H      1.26188194      0.26570030     -2.03665014
  C      0.74156852     -0.20721867     -1.19543553
  C      0.72106715      0.13515788      1.26030834
  C     -1.42094371     -0.12590069      0.11380610
  C     -0.72106715     -0.13515788      1.26030834
  C     -0.74156852      0.20721867     -1.19543553
  C      1.42094371      0.12590069      0.11380610
  H      1.21425518      0.32445064      2.21117460
  H     -2.49602306     -0.29244991      0.11591899
  H     -1.21425518     -0.32445064      2.21117460
  H     -0.82068607      1.29527394     -1.36251687
  H      2.49602306      0.29244991      0.11591899
  H      0.82068607     -1.29527394     -1.36251687
  H     -1.26188194     -0.26570030     -2.03665014
 
 
 
