%chk=G3-221.chk
#p b3lyp/6-31+g(d,p) scf=tight iop(5/33=1) extraoverlay

c2f6 b3lyp/6-31g* = -675.2548542

0    1
  C      0.00000000      0.00000000      0.77211900
  C      0.00000000      0.00000000     -0.77211900
  F      0.00000000      1.25879800      1.22641900
  F     -1.09015100     -0.62939900      1.22641900
  F      1.09015100     -0.62939900      1.22641900
  F      0.00000000     -1.25879800     -1.22641900
  F     -1.09015100      0.62939900     -1.22641900
  F      1.09015100      0.62939900     -1.22641900
 
 
 
