%chk=G3-216.chk
#p b3lyp/6-31+g(d,p) scf=tight iop(5/33=1) extraoverlay

Cl2O2S C2v symmetry b3lyp/6-31g* = -1468.9419902

0    1
  S      0.00000000      0.00000000      0.51967300
  O      0.00000000      1.27595900      1.20347300
  O      0.00000000     -1.27595900      1.20347300
 Cl      1.60197400      0.00000000     -0.81089200
 Cl     -1.60197400      0.00000000     -0.81089200
 
 
 
