%chk=G3-203.chk
#p b3lyp/6-31+g(d,p) scf=tight iop(5/33=1) extraoverlay

Perhydropyridine. cyc-C5H10NH. Cs symmetry.
B3-LYP/6-31G(d) Geom. Optimized Energy = -251.903828. Local minimum.

0    1
  H     -1.31298454      2.08334406     -0.15490018
  C     -0.75885806      1.21672296      0.22518657
  C     -0.75885806     -1.21672296      0.22518657
  C      1.46003097      0.00000000      0.21964649
  C      0.71139456     -1.26589420     -0.22812522
  C      0.71139456      1.26589420     -0.22812522
  N     -1.47347314      0.00000000     -0.17950977
  H     -0.80151620     -1.27126858      1.32293156
  H      1.54082870      0.00000000      1.31707671
  H      0.74643487     -1.34403890     -1.32533830
  H      0.74643487      1.34403890     -1.32533830
  H     -1.56876197      0.00000000     -1.19562119
  H     -0.80151620      1.27126858      1.32293156
  H     -1.31298454     -2.08334406     -0.15490018
  H      2.48644392      0.00000000     -0.16830564
  H      1.20065468     -2.16618701      0.16770861
  H      1.20065468      2.16618701      0.16770861
 
 
 
