%chk=G3-212.chk
#p b3lyp/6-31+g(d,p) scf=tight iop(5/33=1) extraoverlay

SO3 D3h symmetry b3lyp/6-31g* = -623.7592008

0    1
  S      0.00000000      0.00000000      0.00000000
  O      0.00000000      1.45326300      0.00000000
  O      1.25856300     -0.72663200      0.00000000
  O     -1.25856300     -0.72663200      0.00000000
 
 
 
