%chk=G3-202.chk
#p b3lyp/6-31+g(d,p) scf=tight iop(5/33=1) extraoverlay

Tetrahydrothiopyran. C5H10S. Cs symmetry.
B3-LYP/6-31G(d) Geom. Optimized Energy = -594.752990. Local minimum.

0    1
  S     -0.01257903      1.52287092      0.00000000
  C      0.06424515     -1.72946237      0.00000000
  C     -0.38081037      0.37354831      1.38651126
  C     -0.38081037      0.37354831     -1.38651126
  C      0.38651070     -0.94849150      1.28393202
  C      0.38651070     -0.94849150     -1.28393202
  H     -1.46237220      0.19011854      1.41999491
  H     -0.11139743      0.91628720      2.29814003
  H     -1.46237220      0.19011854     -1.41999491
  H     -0.11139743      0.91628720     -2.29814003
  H      1.46341840     -0.74161041      1.33020810
  H      0.14018491     -1.56661645      2.15870786
  H      1.46341840     -0.74161041     -1.33020810
  H      0.14018491     -1.56661645     -2.15870786
  H      0.62028390     -2.67533927      0.00000000
  H     -1.00300398     -1.99807323      0.00000000
 
 
 
