%chk=G3-210.chk
#p b3lyp/6-31+g(d,p) scf=tight iop(5/33=1) extraoverlay

sf6 octahedral symmetry b3lyp/6-31g* = -997.1067172

0    1
  S      0.00000000      0.00000000      0.00000000
  F      0.00000000      0.00000000      1.60001800
  F      0.00000000      1.60001800      0.00000000
  F      0.00000000      0.00000000     -1.60001800
  F     -1.60001800      0.00000000      0.00000000
  F      1.60001800      0.00000000      0.00000000
  F      0.00000000     -1.60001800      0.00000000
 
 
 
