%chk=G3-206.chk
#p b3lyp/6-31+g(d,p) scf=tight iop(5/33=1) extraoverlay

1,4-DiFluorobenzene. C6H4F2. D2h symmetry.
B3-LYP/6-31G(d) Geom. Optimized Energy = -430.713873. Local minimum.

0    1
  C      0.00000000      0.00000000      1.37155310
  C      1.21668499      0.00000000      0.69769685
  C      1.21668499      0.00000000     -0.69769685
  C      0.00000000      0.00000000     -1.37155310
  C     -1.21668499      0.00000000     -0.69769685
  C     -1.21668499      0.00000000      0.69769685
  F      0.00000000      0.00000000      2.72198738
  F      0.00000000      0.00000000     -2.72198738
  H      2.14280691      0.00000000      1.26262738
  H      2.14280691      0.00000000     -1.26262738
  H     -2.14280691      0.00000000     -1.26262738
  H     -2.14280691      0.00000000      1.26262738
 
 
 
