%chk=G3-208.chk
#p b3lyp/6-31+g(d,p) scf=tight iop(5/33=1) extraoverlay

(CH3)2CH-O-CH(CH3)2. Di-isopropyl ether. C2 symmetry.
B3-LYP/6-31G(d) Geom. Optimized Energy = -312.296751. Local minimum.

0    1
  O      0.00000000      0.00000000      0.52543508
  C      1.20336090     -0.15598545     -0.23223862
  C     -1.20336090      0.15598545     -0.23223862
  C      2.17212119     -0.94693227      0.64230388
  C     -2.17212119      0.94693227      0.64230388
  C      1.76856524      1.20964056     -0.63563827
  C     -1.76856524     -1.20964056     -0.63563827
  H      0.99082239     -0.73904323     -1.14260891
  H     -0.99082239      0.73904323     -1.14260891
  H      1.05009311      1.77694015     -1.23774443
  H     -1.05009311     -1.77694015     -1.23774443
  H      2.68472956      1.09570258     -1.22723625
  H     -2.68472956     -1.09570258     -1.22723625
  H      2.00285613      1.79820606      0.25849792
  H     -2.00285613     -1.79820606      0.25849792
  H      1.74915766     -1.92387830      0.89648201
  H     -1.74915766      1.92387830      0.89648201
  H      2.36408338     -0.40562722      1.57563326
  H     -2.36408338      0.40562722      1.57563326
  H      3.12784041     -1.10028303      0.12867415
  H     -3.12784041      1.10028303      0.12867415
 
 
 
