%chk=G3-204.chk
#p b3lyp/6-31+g(d,p) scf=tight iop(5/33=1) extraoverlay

(CH3)3C-O-CH3. t-butyl methyl ether. Cs symmetry.
B3-LYP/6-31G(d) Geom. Optimized Energy = -272.974778. Local minimum.

0    1
  H     -0.55283201      0.00000000     -2.50621459
  H     -1.67345313      0.88626020     -1.44567808
  H     -1.67345313     -0.88626020     -1.44567808
  H      0.25523926      2.16084789     -0.36043901
  H      1.65886669      1.28181763      0.28217464
  H      1.37267038      1.32523562     -1.45914877
  O     -0.79414366      0.00000000      0.79741295
  C      0.00874315      0.00000000     -0.40004851
  C      0.87622491      1.26694577     -0.48414568
  C     -1.03518107      0.00000000     -1.52280209
  C      0.87622491     -1.26694577     -0.48414568
  H      1.65886669     -1.28181763      0.28217464
  H      1.37267038     -1.32523562     -1.45914877
  H      0.25523926     -2.16084789     -0.36043901
  C     -0.12707500      0.00000000      2.04240283
  H     -0.91054533      0.00000000      2.80581682
  H      0.49864839      0.89216153      2.19210018
  H      0.49864839     -0.89216153      2.19210018
 
 
 
