%chk=G3-223.chk
#p b3lyp/6-31+g(d,p) scf=tight iop(5/33=1) extraoverlay

C6H5 phenyl radical C2v symmetry b3lyp/6-31g* = -231.5612785

0    2
  C      0.00000000      0.00000000      1.39997200
  C      0.00000000      0.00000000     -1.32453500
  C      0.00000000      1.22635700      0.77184000
  C      0.00000000     -1.22635700      0.77184000
  C      0.00000000      1.21427900     -0.63263600
  C      0.00000000     -1.21427900     -0.63263600
  H      0.00000000      0.00000000     -2.41114300
  H      0.00000000      2.16269300      1.32357300
  H      0.00000000     -2.16269300      1.32357300
  H      0.00000000      2.15442300     -1.17953600
  H      0.00000000     -2.15442300     -1.17953600
 
 
 
