%chk=G3-218.chk
#p b3lyp/6-31+g(d,p) scf=tight iop(5/33=1) extraoverlay

Cl2S2 C2 symmetry b3lyp/6-31g* = -1716.7588596

0    1
  S      0.45192800      0.88162000      0.74640000
  S     -0.45192800     -0.88162000      0.74640000
 Cl     -0.45192800      2.14117500     -0.70249400
 Cl      0.45192800     -2.14117500     -0.70249400
 
 
 
