%chk=G3-211.chk
#p b3lyp/6-31+g(d,p) scf=tight iop(5/33=1) extraoverlay

P4 Td symmetry b3lyp/6-31g* = -1365.441823

0    1
  P      0.78399900      0.78399900      0.78399900
  P     -0.78399900     -0.78399900      0.78399900
  P      0.78399900     -0.78399900     -0.78399900
  P     -0.78399900      0.78399900     -0.78399900
 
 
 
