#p b3lyp 6-311+g(3df,2p) scf=tight nosymm

chdiene

0    1
    C     -1.41352914      0.06473313      0.23477537
    C     -0.72039532      0.11217450      1.37494968
    C      0.72039532     -0.11217450      1.37494968
    C      1.41352914     -0.06473313      0.23477537
    C      0.72090279      0.24763344     -1.05814135
    C     -0.72090279     -0.24763344     -1.05814135
    H     -2.49108676      0.19181916      0.23624836
    H     -1.22175008      0.29258897      2.31981361
    H      1.22175008     -0.29258897      2.31981361
    H      2.49108676     -0.19181916      0.23624836
    H      1.26583835     -0.17834812     -1.90413240
    H      0.73737258      1.33867080     -1.20351326
    H     -1.26583835      0.17834812     -1.90413240
    H     -0.73737258     -1.33867080     -1.20351326
 
 
 
