#p b3lyp 6-311+g(3df,2p) scf=tight nosymm

ethene

0    1
    C      0.66144094      0.00000000      0.00000000
    C     -0.66144094      0.00000000      0.00000000
    H      1.23091961     -0.92311064      0.00000000
    H      1.23091961      0.92311064      0.00000000
    H     -1.23091961     -0.92311064      0.00000000
    H     -1.23091961      0.92311064      0.00000000
 
 
 
