#p b3lyp 6-311+g(3df,2p) scf=tight nosymm

furane

0    1
    C      1.08597315      0.00000000      0.56850970
    C      0.71368394      0.00000000     -0.73224904
    C     -0.71368394      0.00000000     -0.73224904
    C     -1.08597315      0.00000000      0.56850970
    O      0.00000000      0.00000000      1.37258769
    H      2.04208959      0.00000000      1.06480060
    H      1.37030104      0.00000000     -1.58735512
    H     -1.37030104      0.00000000     -1.58735512
    H     -2.04208959      0.00000000      1.06480060
 
 
 
