#p b3lyp 6-311+g(3df,2p) scf=tight nosymm

maleinNH

0    1
    C      1.14670051      0.00000000      0.39717311
    C      0.66423927      0.00000000     -1.01893897
    C     -0.66423927      0.00000000     -1.01893897
    C     -1.14670051      0.00000000      0.39717311
    N      0.00000000      0.00000000      1.17428667
    O      2.27853358      0.00000000      0.79809299
    O     -2.27853358      0.00000000      0.79809299
    H      1.34982365      0.00000000     -1.85374441
    H     -1.34982365      0.00000000     -1.85374441
    H      0.00000000      0.00000000      2.18054789
 
 
 
