#p b3lyp 6-311+g(3df,2p) scf=tight nosymm

malein

0    1
    C      1.12082640      0.00000000      0.62433049
    C      0.66343959      0.00000000     -0.78668541
    C     -0.66343959      0.00000000     -0.78668541
    C     -1.12082640      0.00000000      0.62433049
    O      0.00000000      0.00000000      1.42741370
    O      2.22312341      0.00000000      1.06365594
    O     -2.22312341      0.00000000      1.06365594
    H      1.35627146      0.00000000     -1.61500787
    H     -1.35627146      0.00000000     -1.61500787
 
 
 
