#p b3lyp 6-311+g(3df,2p) scf=tight nosymm

P1

0    1
    C     -0.66189470     -0.05970978     -1.39391039
    C     -1.48620922     -0.11354839     -0.14471925
    C     -0.69162766      0.31753646      1.08172598
    C      0.69162766     -0.31753646      1.08172598
    C      1.48620922      0.11354839     -0.14471925
    C      0.66189470      0.05970978     -1.39391039
    H     -1.19027606     -0.11879777     -2.34176128
    H     -2.37325455      0.51810494     -0.26358201
    H     -1.87128365     -1.13326876     -0.00731552
    H     -1.23554010      0.06087497      1.99496911
    H     -0.58376903      1.40834213      1.07459336
    H      1.23554010     -0.06087497      1.99496911
    H      0.58376903     -1.40834213      1.07459336
    H      2.37325455     -0.51810494     -0.26358201
    H      1.87128365      1.13326876     -0.00731552
    H      1.19027606      0.11879777     -2.34176128
 
 
 
