#p b3lyp 6-311+g(3df,2p) scf=tight nosymm

P10X

0    1
    C      0.80443304      0.29302536     -1.12243713
    C     -0.35360324     -0.69067009     -0.76953010
    C     -0.35360324     -0.69067009      0.76953010
    C      0.80443304      0.29302536      1.12243713
    C      2.06404838     -0.40967147     -0.66612493
    C      2.06404838     -0.40967147      0.66612493
    C      0.65242877      1.32824716      0.00000000
    C     -1.71965450     -0.16811361     -1.16595336
    C     -1.71965450     -0.16811361      1.16595336
    N     -2.42065767      0.08200548      0.00000000
    O     -2.14410974      0.01476474      2.27533307
    O     -2.14410974      0.01476474     -2.27533307
    H     -3.35747457      0.45885614      0.00000000
    H      0.77819374      0.64715003     -2.15090841
    H     -0.20685982     -1.66649585     -1.23317205
    H     -0.20685982     -1.66649585      1.23317205
    H      0.77819374      0.64715003      2.15090841
    H      2.76487029     -0.90836491     -1.32316102
    H      2.76487029     -0.90836491      1.32316102
    H     -0.30934602      1.84785038      0.00000000
    H      1.46041319      2.05979242      0.00000000
 
 
 
