#p b3lyp 6-311+g(3df,2p) scf=tight nosymm

P4

0    1
    C      0.00000000     -1.11492272     -0.21254228
    C      1.23315429     -0.66400967      0.57649576
    C      1.23315429      0.66400967      0.57649576
    C      0.00000000      1.11492272     -0.21254228
    C      0.00000000      0.00000000     -1.28513206
    C     -1.23315429     -0.66400967      0.57649576
    C     -1.23315429      0.66400967      0.57649576
    H      0.00000000     -2.14861223     -0.55354062
    H      1.92132416     -1.32975419      1.07928737
    H      1.92132416      1.32975419      1.07928737
    H      0.00000000      2.14861223     -0.55354062
    H     -0.90030390      0.00000000     -1.90291733
    H      0.90030390      0.00000000     -1.90291733
    H     -1.92132416     -1.32975419      1.07928737
    H     -1.92132416      1.32975419      1.07928737
 
 
 
