#p b3lyp 6-311+g(3df,2p) scf=tight nosymm

P6

0    1
    C      0.00000000      1.27276572      0.24114304
    C     -1.22794372      0.66366692      0.86959244
    C     -1.22794372     -0.66366692      0.86959244
    C      0.00000000     -1.27276572      0.24114304
    C      0.00000000      0.76796175     -1.23860969
    C      0.00000000     -0.76796175     -1.23860969
    C      1.22794372      0.66366692      0.86959244
    C      1.22794372     -0.66366692      0.86959244
    H      0.00000000      2.36163385      0.28107598
    H     -2.04000938      1.27863458      1.23874610
    H     -2.04000938     -1.27863458      1.23874610
    H      0.00000000     -2.36163385      0.28107598
    H      0.88090582      1.16144730     -1.75014320
    H     -0.88090582      1.16144730     -1.75014320
    H      0.88090582     -1.16144730     -1.75014320
    H     -0.88090582     -1.16144730     -1.75014320
    H      2.04000938      1.27863458      1.23874610
    H      2.04000938     -1.27863458      1.23874610
 
 
 
