#p b3lyp 6-311+g(3df,2p) scf=tight nosymm

P8X

0    1
    C      0.84764412      0.48925969     -1.06227333
    C     -0.29359552     -0.53310289     -0.76783682
    C     -0.29359552     -0.53310289      0.76783682
    C      0.84764412      0.48925969      1.06227333
    C      2.13520649     -0.19901824     -0.66413121
    C      2.13520649     -0.19901824      0.66413121
    O      0.65676793      1.41465593      0.00000000
    C     -1.64845200      0.01916159     -1.16356125
    C     -1.64845200      0.01916159      1.16356125
    N     -2.33831230      0.29420551      0.00000000
    O     -2.06455447      0.19989700      2.27578792
    O     -2.06455447      0.19989700     -2.27578792
    H      0.79269800      0.97759067     -2.03183535
    H     -0.13283245     -1.49568100     -1.25141822
    H     -0.13283245     -1.49568100      1.25141822
    H      0.79269800      0.97759067      2.03183535
    H      2.83349667     -0.66823838     -1.34266777
    H      2.83349667     -0.66823838      1.34266777
    H     -3.25767732      0.71140168      0.00000000
 
 
 
