#p b3lyp 6-311+g(3df,2p) scf=tight nosymm

C1

0    1
    C     -2.84870729     -0.99543974     -0.11061884
    C     -1.49206739     -0.80418575      0.58877611
    C     -0.35672647     -0.52273177     -0.40412382
    C      1.01322043     -0.21683479      0.24024914
    C      1.16444342      1.31397110      0.05588215
    O      0.62051145      2.03226204      1.15030307
    C      0.40552247      1.53861908     -1.25260276
    O     -3.39763725      0.26134117     -0.50123981
    O      1.99611036     -0.95802374     -0.47532181
    O     -1.61135138      0.25281517      1.55131504
    O     -0.71141745      0.63104715     -1.19783876
    C      3.24916026     -1.05616273      0.18952314
    H     -2.74162530     -1.67466669     -0.96739078
    H     -3.56821224     -1.43193270      0.58781011
    H     -1.23936841     -1.72192068      1.13567907
    H     -0.23571548     -1.39252671     -1.06388477
    H      1.04306642     -0.48007977      1.30647506
    H      2.21290434      1.61135108     -0.02966684
    H     -0.18735149      1.57118408      1.44712605
    H      0.01456650      2.55441101     -1.34264975
    H      1.03577542      1.29918110     -2.12013369
    H     -2.75357630      0.67857414     -1.09989477
    H     -2.36284333      0.79602513      1.25317906
    H      3.72363523     -0.07550180      0.32916813
    H      3.13719827     -1.53692770      1.17227407
    H      3.89048522     -1.67384769     -0.44239381
 
 
 
