#p b3lyp 6-311+g(3df,2p) scf=tight nosymm

C10

0    1
    C      2.42854532      0.91705593      0.03451496
    C      1.77222337     -0.45545097      0.15141795
    C      0.45705447     -0.57005796     -0.62304299
    C     -0.70726045      0.25418198     -0.04256004
    C     -1.88443636     -0.73474195     -0.03766804
    O     -2.80055730     -0.40576797      1.00262889
    C     -1.16593842     -2.07430485      0.15869895
    O      3.63688924      0.97647693      0.78078890
    O     -0.88204344      1.41312490     -0.83425398
    O      2.72302530     -1.39259990     -0.35913801
    O      0.03601550     -1.95742986     -0.60741199
    C     -1.71744538      2.41112482     -0.25150802
    H      1.77296937      1.69347788      0.43752693
    H      2.61064631      1.13784392     -1.02774196
    H      1.58277739     -0.67036095      1.21599387
    H      0.61915146     -0.29083298     -1.67003692
    H     -0.50985446      0.54139096      1.00399289
    H     -2.37450833     -0.69884795     -1.02037796
    H     -3.60230824     -0.93596393      0.90656290
    H     -1.72012338     -2.93909579     -0.21833602
    H     -0.95196943     -2.22546484      1.22765887
    H      4.17283720      0.21542798      0.51349092
    H      2.28318733     -2.25430084     -0.40942501
    H     -2.74864030      2.06002885     -0.13082003
    H     -1.33363040      2.72061480      0.73109391
    H     -1.69660638      3.26447176     -0.93204897
 
 
 
