#p b3lyp 6-311+g(3df,2p) scf=tight nosymm

C15

0    1
    C      2.30826083      0.56725488      0.30423875
    C      1.43229390     -0.67039603      0.13011376
    C      0.14615999     -0.42890105     -0.67682518
    C     -0.96773993      0.34533190      0.07798376
    C     -2.13435084     -0.66078503      0.16647776
    O     -2.82020679     -0.66865203      1.40897767
    C     -1.45858089     -2.00793893     -0.06437823
    O      3.49319775      0.26436490      1.02421869
    O     -1.44691689      1.50553481     -0.58848819
    O      2.24857284     -1.62824196     -0.54519419
    O     -0.41903697     -1.72175695     -1.00590316
    C     -0.60523296      2.64577173     -0.49747219
    H      1.78625087      1.33531383      0.88184871
    H      2.54861581      0.97792685     -0.68933618
    H      1.16702091     -1.05501100      1.12896669
    H      0.38972897      0.05186292     -1.63042811
    H     -0.64497695      0.61012488      1.09695169
    H     -2.82016179     -0.43637205     -0.66069218
    H     -3.39117975      0.10902091      1.45656966
    H     -2.11375085     -2.75931088     -0.50899019
    H     -1.05848492     -2.39686990      0.88374470
    H      3.88952372     -0.51321904      0.60355373
    H      1.66223588     -2.33743891     -0.85149317
    H     -0.40813197      2.91372371      0.55098273
    H      0.35325597      2.49180674     -1.01229216
    H     -1.13636592      3.46685567     -0.98313516
 
 
 
