#p b3lyp 6-311+g(3df,2p) scf=tight nosymm

C5

0    1
    C      2.85829660      0.21547310     -0.49550746
    C      1.48253570      0.74726106     -0.05606050
    C      0.33109478     -0.13541387     -0.55853146
    C     -1.05441412      0.10782611      0.06201150
    C     -1.74129007     -1.23852079     -0.17804549
    O     -2.81719899     -1.52368277      0.70110345
    C     -0.60671315     -2.23640472      0.04807050
    O      3.25048857     -0.90249482      0.29749048
    O     -1.81266706      1.14517303     -0.53852446
    O      1.45898370      0.91656405      1.35579640
    O      0.61167376     -1.52450177     -0.25791648
    C     -1.70909907      2.41701694      0.09679449
    H      3.61745954      0.98420604     -0.32732048
    H      2.84708260     -0.03394688     -1.56610439
    H      1.33860071      1.74069899     -0.50109346
    H      0.25794179     -0.01255388     -1.65135338
    H     -0.95078112      0.27622410      1.14184842
    H     -2.08544404     -1.26391879     -1.22244841
    H     -3.53768593     -0.91015082      0.50291746
    H     -0.67154114     -3.11932066     -0.59463946
    H     -0.59236315     -2.55407870      1.09721342
    H      2.57760362     -1.59092877      0.15920549
    H      2.03708166      0.22873310      1.72505737
    H     -2.00405505      2.35681394      1.15302442
    H     -0.69266214      2.82598091      0.03962250
    H     -2.39292802      3.08394589     -0.43261047
 
 
 
