#p b3lyp 6-311+g(3df,2p) scf=tight nosymm

G1

0    1
    C     -0.61609858     -1.46191485     -0.26082727
    O      0.68359833     -1.15822287      0.23313269
    C      1.19566229      0.10132103     -0.24014727
    C      0.28187335      1.23475495      0.24641769
    C     -1.61813351     -0.41509493      0.23114569
    C     -1.15639454      0.97198997     -0.20162628
    O     -1.96495148      2.00556290      0.35519068
    O      0.77035732      2.45745286     -0.28967327
    C      2.62332718      0.20710803      0.28398069
    O      3.43701713     -0.85809990     -0.18882128
    H     -2.88478642      1.84369891      0.08823570
    H      0.11416237      3.14559981     -0.08811529
    H      3.00825216     -1.68700884      0.07956570
    O     -1.02011755     -2.69875176      0.24948369
    O     -2.91465941     -0.61329291     -0.32501627
    H     -1.19493954      1.02712497     -1.30144620
    H      0.30477335      1.26587995      1.34723661
    H      1.21816129      0.09503103     -1.34133519
    H      3.07363615      1.13403496     -0.07645229
    H     -0.45827359     -3.39869471     -0.11986428
    H     -3.24490339     -1.47747485     -0.03024929
    H     -0.58977958     -1.47906085     -1.36409519
    H     -1.65370050     -0.47099992      1.32851361
    H      2.60591719      0.22905703      1.38476661
 
 
 
