#p b3lyp 6-311+g(3df,2p) scf=tight nosymm

G2

0    1
    C     -1.25039578     -1.20861735     -0.27919351
    O      0.04206275     -1.50615821      0.23654107
    C      1.05265152     -0.59219166     -0.21219071
    C      0.69583077      0.81547867      0.29454177
    C     -1.71597306      0.16708169      0.20440871
    C     -0.68963893      1.22087494     -0.19745234
    H      1.09344254     -0.58587576     -1.31329619
    O     -0.97821882      2.49840846      0.36550341
    O     -2.95803367      0.54870396     -0.37934463
    O     -2.15947094     -2.15004088      0.21130354
    O      1.69447797      1.72910505     -0.16240983
    H     -3.63204250     -0.09629526     -0.10983955
    C      2.39956109     -1.09671224      0.31720042
    H     -1.89632325     -3.03392412     -0.09242334
    H      1.39930209      2.62734014      0.06443976
    H     -1.87412526      2.75428961      0.09076498
    H      2.48956369     -2.16266065      0.08980890
    H     -0.67092575      1.29692962     -1.29614391
    H     -1.79781009      0.12937667      1.30009935
    H     -1.21244659     -1.23365596     -1.38269922
    H      0.68618570      0.79852862      1.39512047
    O      3.49609678     -0.45113389     -0.31027199
    H      3.35340191      0.51003660     -0.24631627
    H      2.43282784     -0.97888807      1.41184913
 
 
 
