#p b3lyp 6-311+g(3df,2p) scf=tight nosymm

G3

0    1
    C     -0.11288506     -1.41863844     -0.78036250
    O      0.40959241     -0.23654870     -1.36364838
    C      0.61979998      0.88990575     -0.50253821
    C     -0.61011604      1.20757778      0.36778083
    C     -1.43900587     -1.16243456     -0.04626729
    C     -1.24760319     -0.05088908      1.00951572
    O     -0.48679748     -0.49919476      2.12454981
    O     -1.66043778      1.79383387     -0.42268037
    C      1.93115069      0.77479410      0.32882832
    O      2.88225415     -0.11634543     -0.25616034
    H      0.12911367     -1.18582687      1.80296413
    H     -1.33590286      2.59430229     -0.86424108
    H      2.97633759      0.08920874     -1.20071452
    O      0.79333018     -1.98847596      0.16086353
    O     -2.47074754     -0.86351258     -0.97021908
    H     -2.23180272      0.24577066      1.38586284
    H     -0.31841055      1.89503777      1.17421386
    H      0.75151178      1.71194211     -1.21902350
    H      2.36346506      1.78005872      0.43735361
    H      1.70348772     -1.75009521     -0.11197239
    H     -2.39388948      0.07670288     -1.21635880
    H     -0.26572077     -2.08828234     -1.63230513
    H     -1.73289578     -2.08526093      0.46424780
    H      1.74617190      0.38637018      1.33031114
 
 
 
