#p b3lyp 6-311+g(3df,2p) scf=tight nosymm

02_Water-MeOH_1_y_+30

0    1
    O     -1.89483826      0.00000000      0.98117340
    H     -2.64846608     -0.37674341      0.52091471
    C     -1.65504089     -0.79529268      2.13949844
    H     -0.79723295     -0.36158735      2.64226313
    H     -2.50436719     -0.78008256      2.82201789
    H     -1.41693352     -1.82711046      1.88214129
 
 
 
