#p b3lyp 6-311+g(3df,2p) scf=tight nosymm

02_Water-MeOH_1_z_+30

0    1
    O     -1.86749958     -0.98117340      0.00000000
    H     -2.04505087     -1.51870851     -0.77540963
    C     -1.79157466     -1.85566302      1.12303759
    H     -1.58277487     -1.23431263      1.98734855
    H     -2.73171404     -2.38088961      1.28945362
    H     -0.98564633     -2.58180063      1.01921345
 
 
 
