#p b3lyp 6-311+g(3df,2p) scf=tight nosymm

03_Water-MeNH2_2_y_-30

0    1
    N      0.05338483      0.00000000      0.00000000
    H      0.67685511     -0.58582471     -0.54077316
    H     -0.10721369     -0.49961523      0.86535433
    C      0.70810527      1.27963793      0.28640281
    H      0.03831350      1.89705928      0.88003342
    H      1.65700637      1.19698549      0.82057089
    H      0.89066968      1.80309963     -0.64892475
 
 
 
