#p b3lyp 6-311+g(3df,2p) scf=tight nosymm

03_Water-MeNH2_1_z_-30

0    1
    N     -1.93090408      1.00598187      0.00000000
    H     -2.45725750      0.63342005      0.78005843
    H     -2.43497222      0.72009977     -0.82971809
    C     -1.90614149      2.46928380      0.07932811
    H     -1.35213659      2.86236568     -0.76966696
    H     -2.89044511      2.94213293      0.09117553
    H     -1.37632524      2.76783575      0.98062775
 
 
 
