#p b3lyp 6-311+g(3df,2p) scf=tight nosymm

04_Water-Peptide_2_y_+30

0    1
    C     -0.37947022     -2.35920591      0.15946959
    H      0.08849865     -3.29181509     -0.14528790
    H     -1.37920739     -2.29694401     -0.26300862
    H     -0.49345563     -2.34416882      1.24049645
    C      0.39968785     -1.13936998     -0.26118700
    O      0.01628576      0.00000000      0.00000000
    N      1.54587011     -1.38184558     -0.94336286
    H      1.79555991     -2.33730062     -1.12047629
    C      2.40696839     -0.32057747     -1.41778657
    H      1.95198809      0.61794186     -1.11876866
    H      3.39855607     -0.39385963     -0.97546081
    H      2.49696765     -0.34450762     -2.50200900
 
 
 
