#p b3lyp 6-311+g(3df,2p) scf=tight nosymm

05_MeOH-MeOH_2_z_-30

0    1
    O      0.03354544      0.00000000      0.00000000
    H      0.15216933     -0.73493799      0.60625538
    C      0.26265762     -0.48373736     -1.32060947
    H      0.10650375      0.35524853     -1.99056217
    H      1.28303228     -0.84490649     -1.44631672
    H     -0.43603139     -1.27487535     -1.59167668
 
 
 
