#p b3lyp 6-311+g(3df,2p) scf=tight nosymm

05_MeOH-MeOH_1_z_+30

0    1
    O     -1.80990435     -0.96837126      0.00000000
    H     -1.92852825     -1.70330925     -0.60625538
    C     -2.03901653     -1.45210863      1.32060947
    H     -1.88286266     -0.61312274      1.99056217
    H     -3.05939119     -1.81327775      1.44631672
    H     -1.34032752     -2.24324662      1.59167668
 
 
 
