#p b3lyp 6-311+g(3df,2p) scf=tight nosymm

06_MeOH-MeNH2_1_y_-30

0    1
    N     -1.90195913      0.00000000     -0.98468068
    H     -2.59271498     -0.52916603     -0.46786884
    H     -1.79214146     -0.48273762     -1.86737546
    C     -2.40262008      1.35715254     -1.22595763
    H     -1.66036156      1.91384389     -1.79277182
    H     -3.35029818      1.40309833     -1.76645550
    H     -2.53006708      1.86330587     -0.27218575
 
 
 
