#p b3lyp 6-311+g(3df,2p) scf=tight nosymm

07_MeOH-Peptide_2_z_+30

0    1
    C      0.48637528      1.70444040      1.11955249
    H      0.40915562      2.78860344      1.09381510
    H      0.59806550      1.38350574      2.15405053
    H     -0.42516014      1.25695342      0.73306242
    C      1.65707560      1.18261471      0.32631580
    O      1.75882691      0.00000000      0.00000000
    N      2.60432165      2.09194755      0.00000000
    H      2.50865794      3.03024605      0.34169115
    C      3.80655843      1.70441912     -0.70782511
    H      3.54823411      0.95020770     -1.44459538
    H      4.22321276      2.57323198     -1.20847668
    H      4.55408427      1.28330696     -0.03658396
 
 
 
