#p b3lyp 6-311+g(3df,2p) scf=tight nosymm

09_MeNH2-MeOH_1_y_-30

0    1
    O     -2.10827613      0.00000000     -1.13128731
    H     -2.76019673     -0.40960642     -0.55770680
    C     -2.54839092      1.32388263     -1.40110060
    H     -1.80442318      1.77507145     -2.05021283
    H     -3.50908022      1.34028584     -1.91719726
    H     -2.62298922      1.92607243     -0.49451423
 
 
 
