#p b3lyp 6-311+g(3df,2p) scf=tight nosymm

09_MeNH2-MeOH_2_y_+30

0    1
    O      0.07792528      0.00000000      0.00000000
    H     -0.09284971     -0.40960642     -0.85137006
    C      0.53164784      1.32388263     -0.24624395
    H      0.72181165      1.77507145      0.72260712
    H      1.45894531      1.34028584     -0.82017696
    H     -0.21617983      1.92607243     -0.76414115
 
 
 
