#p b3lyp 6-311+g(3df,2p) scf=tight nosymm

10_MeNH2-MeNH2_1_y_-30

0    1
    N     -2.44079895      0.00000000     -1.13830109
    H     -3.08334920      0.03765438     -0.35726715
    H     -2.90207221     -0.55917711     -1.84408799
    C     -2.22309614      1.35631200     -1.65035826
    H     -1.57339535      1.30532932     -2.52137150
    H     -3.13199653      1.89076899     -1.93740130
    H     -1.70557642      1.93848226     -0.89144148
 
 
 
