#p b3lyp 6-311+g(3df,2p) scf=tight nosymm

10_MeNH2-MeNH2_2_z_-30

0    1
    N      0.08061065      0.00000000      0.00000000
    H      0.24315292     -0.05036428     -0.99767036
    H      0.45259174     -0.86044549      0.38059276
    C      0.81721680      1.14085444      0.55230592
    H      0.68160967      1.16027752      1.63147591
    H      1.89041387      1.13838160      0.34644229
    H      0.39154153      2.05885048      0.15382456
 
 
 
