#p b3lyp 6-311+g(3df,2p) scf=tight nosymm

10_MeNH2-MeNH2_1_z_-30

0    1
    N     -2.44485650      1.13830109      0.00000000
    H     -2.56974438      1.25388468      0.99767036
    H     -3.37601469      1.03022342     -0.38059276
    C     -1.82515065      2.34664795     -0.55230592
    H     -1.74052620      2.23892027     -1.63147591
    H     -2.36389073      3.27482746     -0.34644229
    H     -0.81730512      2.43700037     -0.15382456
 
 
 
