#p b3lyp 6-311+g(3df,2p) scf=tight nosymm

10_MeNH2-MeNH2_2_y_-30

0    1
    N      0.21863363      0.00000000      0.00000000
    H      0.86118388      0.03765438     -0.78103395
    H      0.67990689     -0.55917711      0.70578690
    C      0.00093081      1.35631200      0.51205717
    H     -0.64876997      1.30532932      1.38307041
    H      0.90983121      1.89076899      0.79910020
    H     -0.51658890      1.93848226     -0.24685962
 
 
 
