#p b3lyp 6-311+g(3df,2p) scf=tight nosymm

10_MeNH2-MeNH2_1_z_+30

0    1
    N     -2.05188902     -1.13830109      0.00000000
    H     -2.21443128     -1.18866538      0.99767036
    H     -2.42387010     -1.99874658     -0.38059276
    C     -2.78849516      0.00255334     -0.55230592
    H     -2.65288803      0.02197643     -1.63147591
    H     -3.86169224      0.00008051     -0.34644229
    H     -2.36281989      0.92054938     -0.15382456
 
 
 
