#p b3lyp 6-311+g(3df,2p) scf=tight nosymm

11_MeNH2-Peptide_1_z_+30

0    1
    C     -2.33759322      0.30818051      1.87148720
    H     -2.15558104     -0.46632728      2.61290131
    H     -3.13002028      0.96400653      2.22454839
    H     -1.41641494      0.87594836      1.75017759
    C     -2.65447735     -0.35355795      0.55468133
    O     -1.87256845     -1.12063503     -0.00000000
    N     -3.85052384     -0.02836447      0.00000000
    H     -4.48995973      0.53745811      0.52601753
    C     -4.27573849     -0.61940577     -1.25038234
    H     -3.42517358     -0.66412155     -1.92416675
    H     -4.65260767     -1.63282384     -1.11464494
    H     -5.05473105     -0.00403050     -1.69092212
 
 
 
