#p b3lyp 6-311+g(3df,2p) scf=tight nosymm

13_Peptide-MeOH_2_y_+30

0    1
    O      0.05729076      0.00000000      0.00000000
    H      0.41143829     -0.28044986     -0.84689947
    C      1.06395778      0.74975901      0.67276406
    H      0.63935718      1.05633677      1.62380276
    H      1.95400301      0.15184042      0.86768511
    H      1.34667402      1.64295912      0.11562767
 
 
 
