#p b3lyp 6-311+g(3df,2p) scf=tight nosymm

13_Peptide-MeOH_1_z_+30

0    1
    O     -1.81716624     -1.00740139     -0.00000000
    H     -2.30927019     -1.61535333      0.55636269
    C     -2.65573063     -0.62579963     -1.08596428
    H     -2.07875722      0.06132163     -1.69728765
    H     -2.93990197     -1.48028294     -1.69979347
    H     -3.55561499     -0.11396946     -0.74482813
 
 
 
