#p b3lyp 6-311+g(3df,2p) scf=tight nosymm

14_Peptide-MeNH2_1_z_-30

0    1
    N     -2.28353597      1.03286285     -0.00000000
    H     -2.46597479      1.63851832      0.79036973
    H     -3.09598745      0.43318482     -0.07156888
    C     -2.16613647      1.84115852     -1.21924637
    H     -1.98313476      1.18288502     -2.06520332
    H     -3.04089533      2.45432534     -1.44468674
    H     -1.30404763      2.49790049     -1.12910054
 
 
 
