#p b3lyp 6-311+g(3df,2p) scf=tight nosymm

14_Peptide-MeNH2_1_y_+30

0    1
    N     -1.98372051     -0.00000000      1.03286285
    H     -1.98762127      0.43329362      1.94775531
    H     -2.36917535     -0.92556215      1.17276468
    C     -2.85529636      0.75870434      0.12820296
    H     -2.85598277      0.28012362     -0.84822768
    H     -3.88959471      0.85234295      0.46503928
    H     -2.44803443      1.75850398     -0.00283838
 
 
 
