#p b3lyp 6-311+g(3df,2p) scf=tight nosymm

14_Peptide-MeNH2_2_y_-30

0    1
    N      0.36027347      0.00000000      0.00000000
    H      1.15454396      0.43329362     -0.45406807
    H      0.67415943     -0.92556215      0.26386277
    C      0.01260295      0.75870434      1.20713677
    H     -0.83266759      0.28012362      1.69594654
    H      0.82146093      0.85234295      1.93444726
    H     -0.30451315      1.75850398      0.91995826
 
 
 
