#p b3lyp 6-311+g(3df,2p) scf=tight nosymm

14_Peptide-MeNH2_2_z_-30

0    1
    N      0.05427024      0.00000000      0.00000000
    H      0.67000267      0.14483109     -0.79036973
    H     -0.05884044     -1.00344263      0.07156888
    C      0.69557507      0.50581879      1.21924637
    H      0.03399264      0.33516617      2.06520332
    H      1.66397254      0.05483880      1.44468674
    H      0.83328587      1.58078060      1.12910054
 
 
 
