#p b3lyp 6-311+g(3df,2p) scf=tight nosymm

15_Peptide-Peptide_1_y_-30

0    1
    C     -0.90012939      1.31422723     -2.69831306
    H     -0.96411232      1.43356421     -3.77710117
    H      0.06530798      0.89039284     -2.43512212
    H     -0.96586067      2.29479075     -2.23029271
    C     -1.98965053      0.43650137     -2.13403417
    O     -1.94432208      0.00000000     -0.98466511
    N     -3.02377293      0.18133011     -2.97066558
    H     -2.99739632      0.58299746     -3.89004668
    C     -4.17052324     -0.60601070     -2.57065560
    H     -3.97338177     -0.97327734     -1.56895874
    H     -5.07627344     -0.00280399     -2.55676727
    H     -4.31328327     -1.45031546     -3.24145090
 
 
 
