#p b3lyp 6-311+g(3df,2p) scf=tight nosymm

17_Uracil-Uracil_BP_1_y_+30

0    1
    N     -3.82257788      0.22738870      2.14847505
    H     -4.16925630      1.15600710      2.34692924
    C     -4.61178800     -0.84116728      2.60730876
    O     -5.65069581     -0.62672743      3.20770453
    C     -4.04996798     -2.13879722      2.28527607
    H     -4.58012957     -3.02310091      2.59387985
    C     -2.88288391     -2.21287421      1.61044339
    H     -2.42433213     -3.15462623      1.34733742
    N     -2.19414054     -1.10196060      1.20961469
    H     -1.30777536     -1.17678595      0.69718488
    C     -2.63442743      0.17082356      1.46145957
    O     -2.02627964      1.17678595      1.10755242
 
 
 
