#p b3lyp 6-311+g(3df,2p) scf=tight nosymm

20_AcOH-AcOH_1_y_+30

0    1
    C     -2.53254589     -0.10592628      1.38811184
    O     -1.91805996     -1.10402313      1.03296721
    O     -2.12992773      1.13332188      1.15569716
    H     -1.26914248      1.10402313      0.65860997
    C     -3.82815218     -0.16013364      2.13692756
    H     -4.11630404     -1.19126938      2.30046970
    H     -3.71717415      0.35645545      3.08723641
    H     -4.59506475      0.36128970      1.56921705
 
 
 
