#p b3lyp 6-311+g(3df,2p) scf=tight nosymm

20_AcOH-AcOH_1_z_+30

0    1
    C     -3.07229948     -1.47967922      0.00019338
    O     -1.95860447     -1.98919007     -0.00012793
    O     -3.28932142     -0.17401638      0.00022544
    H     -2.41383805      0.29761290      0.00012793
    C     -4.34114724     -2.27484208      0.00088367
    H     -4.11250908     -3.33349078     -0.00156061
    H     -4.92770406     -2.01698512      0.87936429
    H     -4.93121747     -2.01343148     -0.87422434
 
 
 
