#p b3lyp 6-311+g(3df,2p) scf=tight nosymm

20_AcOH-AcOH_1_z_-30

0    1
    C     -3.12297854      1.29620953      0.00019338
    O     -3.00738038      0.07696593     -0.00012793
    O     -2.10075233      2.13698745      0.00022544
    H     -1.25456770      1.61461125      0.00012793
    C     -4.44603366      1.99748248      0.00088367
    H     -5.24853124      1.27015168     -0.00156061
    H     -4.51600139      2.63438407      0.87936429
    H     -4.51468056      2.63920360     -0.87422434
 
 
 
