#p b3lyp 6-311+g(3df,2p) scf=tight nosymm

21_AcNH2-AcNH2_1_y_-30

0    1
    C     -2.71092308     -0.11114223     -1.49000041
    O     -2.16277502     -1.16923936     -1.17318727
    N     -2.19793938      1.09752247     -1.19610516
    H     -1.31581113      1.16923936     -0.68573990
    H     -2.68020530      1.92999523     -1.47361865
    C     -4.02067495     -0.12103350     -2.24056805
    H     -4.38597040      0.87290689     -2.48517963
    H     -4.76135255     -0.63697813     -1.63450403
    H     -3.88949254     -0.69256089     -3.15573685
 
 
 
