#p b3lyp 6-311+g(3df,2p) scf=tight nosymm

21_AcNH2-AcNH2_2_z_-30

0    1
    C      1.54751029     -0.65711433     -0.00037588
    O      0.47016657     -1.25689497     -0.00067007
    N      1.63984449      0.68522227      0.00159522
    H      0.79311211      1.25689497      0.00067007
    H      2.53794717      1.12795919      0.00079600
    C      2.84988388     -1.42046153     -0.00524116
    H      3.72674558     -0.77901437      0.02395096
    H      2.88498634     -2.03648949     -0.90044680
    H      2.86201309     -2.08740733      0.85290947
 
 
 
