#p b3lyp 6-311+g(3df,2p) scf=tight nosymm

21_AcNH2-AcNH2_2_z_+30

0    1
    C      1.67814804      0.46461035     -0.00037588
    O      1.65890145     -0.76828701     -0.00067007
    N      0.56181753      1.21574241      0.00159522
    H     -0.35663174      0.76828701      0.00067007
    H      0.62744746      2.21489061      0.00079600
    C      2.99041289      1.21082537     -0.00524116
    H      2.87333421      2.29093345      0.02395096
    H      3.54145999      0.93321101     -0.90044680
    H      3.57406950      0.88785667      0.85290947
 
 
 
