#p b3lyp 6-311+g(3df,2p) scf=tight nosymm

22_AcOH-Uracil_2_y_-30

0    1
    N      2.22874000     -0.30055981      1.23416684
    H      2.55180972     -1.24111726      1.41586641
    C      3.04831803      0.74055164      1.70857603
    O      4.08200791      0.48748894      2.30107357
    C      2.51936695      2.05745690      1.40975752
    H      3.07362551      2.92228173      1.73100959
    C      1.35289169      2.17390145      0.74067332
    H      0.91778555      3.13107066      0.49447235
    N      0.63456234      1.08647813      0.32433421
    H     -0.25190495      1.18424894     -0.18434783
    C      1.04365976     -0.19715783      0.55399515
    O      0.40709552     -1.18424894      0.18434783
 
 
 
