#p b3lyp 6-311+g(3df,2p) scf=tight nosymm

22_AcOH-Uracil_1_y_+30

0    1
    N     -3.77940958     -0.30055981      2.11485782
    H     -4.09830089     -1.24111726      2.30379462
    C     -4.60004901      0.74055164      2.58742862
    O     -5.63001187      0.48748894      3.18638154
    C     -4.07678905      2.05745690      2.27875280
    H     -4.63213078      2.92228173      2.59812876
    C     -2.91410751      2.17390145      1.60309769
    H     -2.48333814      3.13107066      1.34938521
    N     -2.19438258      1.08647813      1.18917579
    H     -1.31061737      1.18424894      0.67581362
    C     -2.59782351     -0.19715783      1.42863407
    O     -1.95941742     -1.18424894      1.06217693
 
 
 
