#p b3lyp 6-311+g(3df,2p) scf=tight nosymm

22_AcOH-Uracil_2_z_+30

0    1
    N      2.93862170      0.97972227     -0.00675252
    H      3.72988093      0.35049380     -0.01093094
    C      3.23817470      2.35484122     -0.00569113
    O      4.39653242      2.73140773     -0.00941814
    C      2.05361655      3.19156747      0.00000000
    H      2.17600428      4.26084176      0.00108317
    C      0.83081587      2.62004175      0.00379371
    H     -0.08070648      3.19901788      0.00813048
    N      0.65550040      1.26317503      0.00239814
    H     -0.27850126      0.83682492      0.00510021
    C      1.70358755      0.38607329     -0.00325836
    O      1.55964794     -0.83682492     -0.00510021
 
 
 
