#p b3lyp 6-311+g(3df,2p) scf=tight nosymm

22_AcOH-Uracil_2_z_-30

0    1
    N      2.63413375     -1.50030712     -0.00675252
    H      2.48483553     -2.50017195     -0.01093094
    C      3.97479819     -1.07216816     -0.00569113
    O      4.88009321     -1.88705211     -0.00941814
    C      4.10714530      0.37205242      0.00000000
    H      5.09435787      0.80069868      0.00108317
    C      3.00078918      1.14526601      0.00379371
    H      3.04643603      2.22415559      0.00813048
    N      1.73805039      0.61866030      0.00239814
    H      0.90181953      1.21435441      0.00510021
    C      1.50250157     -0.72756067     -0.00325836
    O      0.37147085     -1.21435441     -0.00510021
 
 
 
