#p b3lyp 6-311+g(3df,2p) scf=tight nosymm

23_AcNH2-Uracil_2_y_+30

0    1
    N      2.24827137     -0.02684630     -1.27674204
    H      2.65099893     -0.91855421     -1.52973778
    C      2.96279535      1.11241989     -1.68427373
    O      4.00555425      0.99569674     -2.30555855
    C      2.32401429      2.35105568     -1.28646861
    H      2.79185489      3.28355563     -1.55065072
    C      1.16305147      2.31133369     -0.59751418
    H      0.64798420      3.20555423     -0.27840305
    N      0.54983736      1.14040895     -0.25056214
    H     -0.33888746      1.14829441      0.27559847
    C      1.06662488     -0.08502353     -0.57666508
    O      0.53045806     -1.14829441     -0.27559847
 
 
 
