#p b3lyp 6-311+g(3df,2p) scf=tight nosymm

23_AcNH2-Uracil_1_z_-30

0    1
    N     -4.45279489      2.13397108      0.02944800
    H     -5.31024488      1.59936447      0.04718496
    C     -4.59552117      3.53188543      0.02511881
    O     -5.70497615      4.03764927      0.04178780
    C     -3.32486281      4.22852390      0.00000000
    H     -3.32388750      5.30471899     -0.00513188
    C     -2.17567567      3.51917339     -0.01617063
    H     -1.20408578      3.99078264     -0.03499534
    N     -2.15099282      2.15285531     -0.01003286
    H     -1.25267225      1.64331503     -0.02133889
    C     -3.29250642      1.39690095      0.01398682
    O     -3.29165107      0.16864766      0.02133889
 
 
 
