#p b3lyp 6-311+g(3df,2p) scf=tight nosymm

24_Benzene-Benzene_pi-pi_2_y_+30

0    1
    C      1.06225233      1.16319960      0.41901777
    H      1.56206202      2.06577731      0.74414453
    C      0.58748415      1.06171850     -0.88769352
    H      0.71989365      1.88485284     -1.57698045
    C     -0.05326385     -0.10273910     -1.30706306
    H     -0.42011003     -0.18262672     -2.32157882
    C     -0.22314954     -1.16330490     -0.41869478
    H     -0.72608664     -2.06461832     -0.74173474
    C      0.24906333     -1.06115562      0.88794351
    H      0.10736161     -1.87998103      1.57979193
    C      0.89267938      0.10183173      1.30606670
    H      1.25687208      0.18195555      2.32140256
 
 
 
