#p b3lyp 6-311+g(3df,2p) scf=tight nosymm

24_Benzene-Benzene_pi-pi_2_y_-30

0    1
    C      0.60497332      1.16319960      0.76659635
    H      0.57331014      2.06577731      1.36200762
    C      1.49923441      1.06171850     -0.29792060
    H      2.16237914      1.88485284     -0.52789407
    C      1.54204508     -0.10273910     -1.06250942
    H      2.23721841     -0.18262672     -1.88746541
    C      0.68775274     -1.16330490     -0.76545059
    H      0.71604500     -2.06461832     -1.36252688
    C     -0.20772278     -1.06115562      0.29681689
    H     -0.87773195     -1.87998103      0.52002381
    C     -0.24802006      0.10183173      1.06326633
    H     -0.94523035      0.18195555      1.88633439
 
 
 
