#p b3lyp 6-311+g(3df,2p) scf=tight nosymm

24_Benzene-Benzene_pi-pi_2_z_+30

0    1
    C      0.09451008      1.18114969      0.68451463
    H     -0.12270552      2.09794718      1.21598751
    C      0.35499708      1.21436166     -0.68451463
    H      0.34120703      2.15687363     -1.21524987
    C      0.63825722      0.03330215     -1.36807331
    H      0.84236461      0.05889733     -2.43009282
    C      0.65645110     -1.18082950     -0.68366665
    H      0.86978539     -2.09840798     -1.21489601
    C      0.39374514     -1.21455103      0.68402174
    H      0.39730240     -2.15799539      1.21232918
    C      0.11391085     -0.03321132      1.36793506
    H     -0.09265986     -0.05995595      2.42933806
 
 
 
