#p b3lyp 6-311+g(3df,2p) scf=tight nosymm

25_Pyridine-Pyridine_pi-pi_2_y_+30

0    1
    N      0.56971773     -1.15424147     -0.78410875
    C      1.31205269     -1.06643055      0.32899789
    H      1.89958493     -1.94232145      0.57677952
    C      1.35803326      0.06272494      1.14187235
    H      1.98139384      0.06858442      2.02511424
    C      0.58959790      1.16936442      0.79381660
    H      0.59351464      2.06259008      1.40302727
    C     -0.18841006      1.09539105     -0.35588159
    H     -0.81184465      1.92201913     -0.66526732
    C     -0.16080007     -0.07851747     -1.10617292
    H     -0.75580864     -0.16222606     -2.00759903
 
 
 
