#p b3lyp 6-311+g(3df,2p) scf=tight nosymm

25_Pyridine-Pyridine_pi-pi_2_y_-30

0    1
    N      1.11444896     -1.15424147     -0.40083504
    C      0.52163782     -1.06643055      0.79859922
    H      0.60081876     -1.94232145      1.43130787
    C     -0.15934182      0.06272494      1.24485679
    H     -0.61257145      0.06858442      2.22632383
    C     -0.24213438      1.16936442      0.40534437
    H     -0.76776793      2.06259008      0.71334170
    C      0.36452947      1.09539105     -0.84327938
    H      0.32074809      1.92201913     -1.53788244
    C      1.02810582     -0.07851747     -1.19451409
    H      1.51125944     -0.16222606     -2.16051969
 
 
 
