#p b3lyp 6-311+g(3df,2p) scf=tight nosymm

26_Uracil-Uracil_pi-pi_1_y_-30

0    1
    N     -3.25834843      0.94351253     -1.50899363
    H     -3.06416728      1.93077344     -1.39056733
    C     -3.91494987      0.30686617     -0.44807346
    O     -4.26732652      0.94049584      0.53527837
    N     -2.89120048     -0.99675650     -2.69692784
    H     -4.61446373     -1.68789434      0.09790304
    C     -3.56045837     -1.71047622     -1.74153386
    H     -3.63056466     -2.77304694     -1.91964337
    C     -4.08962048     -1.11946364     -0.65024887
    H     -2.40137975     -1.46593588     -3.44166528
    C     -2.66587107      0.36457855     -2.61461622
    O     -2.00355452      0.97824141     -3.42902580
 
 
 
