#p b3lyp 6-311+g(3df,2p) scf=tight nosymm

26_Uracil-Uracil_pi-pi_2_y_-30

0    1
    N      0.75160516      0.94351253     -0.07396034
    H      0.55742402      1.93077344     -0.19238664
    C      1.40820661      0.30686617     -1.13488051
    O      1.76058325      0.94049584     -2.11823234
    N      0.38445722     -0.99675650      1.11397387
    H      2.10772046     -1.68789434     -1.68085701
    C      1.05371511     -1.71047622      0.15857989
    H      1.12382139     -2.77304694      0.33668940
    C      1.58287721     -1.11946364     -0.93270510
    H     -0.10536352     -1.46593588      1.85871131
    C      0.15912780      0.36457855      1.03166225
    O     -0.50318875      0.97824141      1.84607183
 
 
 
