#p b3lyp 6-311+g(3df,2p) scf=tight nosymm

26_Uracil-Uracil_pi-pi_1_z_-30

0    1
    N     -3.06855862      2.35842923      0.03733121
    H     -2.37801222      3.09973278      0.04280082
    C     -3.41994097      1.82616403      1.28441575
    O     -2.94160479      2.28164903      2.31221174
    N     -4.27772277      0.81611078     -1.17502397
    H     -4.70554186      0.26505501      2.10700220
    C     -4.72282833      0.24896005     -0.01299957
    H     -5.38381708     -0.59636890     -0.13219378
    C     -4.35165335      0.71710462      1.19666202
    H     -4.46742768      0.38387529     -2.06489587
    C     -3.39241622      1.87691312     -1.21640472
    O     -2.94149706      2.32517166     -2.25286238
 
 
 
