#p b3lyp 6-311+g(3df,2p) scf=tight nosymm

27_Benzene-Pyridine_pi-pi_2_y_+30

0    1
    N      0.41642172     -1.02557627     -0.92254368
    C      1.29222761     -1.15305021      0.08414884
    H      1.82342991     -2.09597227      0.13339151
    C      1.53787135     -0.15906311      1.02761886
    H      2.25969025     -0.32649653      1.81471441
    C      0.83790734      1.03936832      0.93345952
    H      0.99597479      1.83282309      1.65078811
    C     -0.07605870      1.18836604     -0.10318572
    H     -0.65247453      2.09527214     -0.21634291
    C     -0.24843507      0.13521856     -0.99785170
    H     -0.95554942      0.22429908     -1.81355993
 
 
 
