#p b3lyp 6-311+g(3df,2p) scf=tight nosymm

27_Benzene-Pyridine_pi-pi_1_y_+30

0    1
    N     -3.53474493     -1.02557627      2.76259110
    C     -4.41055083     -1.15305021      1.75589858
    H     -4.94175312     -2.09597227      1.70665591
    C     -4.65619457     -0.15906311      0.81242856
    H     -5.37801346     -0.32649653      0.02533301
    C     -3.95623056      1.03936832      0.90658790
    H     -4.11429800      1.83282309      0.18925931
    C     -3.04226451      1.18836604      1.94323314
    H     -2.46584868      2.09527214      2.05639033
    C     -2.86988815      0.13521856      2.83789912
    H     -2.16277380      0.22429908      3.65360735
 
 
 
