#p b3lyp 6-311+g(3df,2p) scf=tight nosymm

28_Benzene-Uracil_pi-pi_2_z_-30

0    1
    N      0.74390275      0.92328942      0.01603161
    H      0.89259564      1.92220715      0.05724562
    C      0.64534615      0.36998400     -1.26653094
    O      0.79008089      1.06691535     -2.25675869
    C      0.37058082     -1.05646004     -1.25851967
    H      0.29051093     -1.57347356     -2.19915941
    C      0.22736188     -1.70377674     -0.08410171
    H      0.02380433     -2.76281584     -0.02538164
    N      0.32655164     -1.05352084      1.11597466
    H      0.22080549     -1.54568535      1.98702968
    C      0.59066981      0.30139712      1.23520738
    O      0.68232257      0.86465360      2.30851187
 
 
 
