#p b3lyp 6-311+g(3df,2p) scf=tight nosymm

29_Pyridine-Uracil_pi-pi_2_y_-30

0    1
    N      0.62780759      0.85709343      0.17186941
    H      0.19849135      1.75540338      0.34547146
    C      1.46412475      0.78212584     -0.94950331
    O      1.66187354      1.76782703     -1.64121926
    C      2.01755664     -0.54187955     -1.16431993
    H      2.68147171     -0.69735271     -1.99706464
    C      1.68146813     -1.55002093     -0.33323800
    H      2.05104643     -2.55622157     -0.46242537
    N      0.84544611     -1.36215901      0.73195075
    H      0.55386981     -2.13619867      1.30490498
    C      0.25053055     -0.15112938      1.03313850
    O     -0.51957534     -0.00000894      1.96236666
 
 
 
