#p b3lyp 6-311+g(3df,2p) scf=tight nosymm

29_Pyridine-Uracil_pi-pi_2_y_+30

0    1
    N      0.64880855      0.85709343      0.38798293
    H      0.58449422      1.75540338      0.84658272
    C      0.09582987      0.78212584     -0.89697534
    O     -0.40433932      1.76782703     -1.41408879
    C      0.18650916     -0.54187955     -1.48366972
    H     -0.20271137     -0.69735271     -2.47500939
    C      0.73820297     -1.55002093     -0.77706757
    H      0.81111258     -2.55622157     -1.16172545
    N      1.24267248     -1.36215901      0.47954311
    H      1.59307724     -2.13619867      1.01853271
    C      1.20605094     -0.15112938      1.14534897
    O      1.62573319     -0.00000894      2.27689431
 
 
 
