#p b3lyp 6-311+g(3df,2p) scf=tight nosymm

30_Benzene-Ethene_1_z_-30

0    1
    C     -3.44837409      2.29414581      0.03773332
    H     -3.19010598      2.73254554      0.99096629
    H     -3.13780618      2.82306369     -0.85184404
    C     -4.11340700      1.14228759     -0.03773335
    H     -4.41618175      0.60887253      0.85184433
    H     -4.36394572      0.69942263     -0.99096611
 
 
 
