#p b3lyp 6-311+g(3df,2p) scf=tight nosymm

31_Uracil-Ethene_1_y_+30

0    1
    C     -3.92820992      0.03548903      1.11199583
    H     -3.86201472      0.88049592      0.44124094
    H     -4.62267526     -0.75018719      0.84902696
    C     -3.19320817     -0.03556274      2.22236278
    H     -2.50426718      0.75110986      2.49619555
    H     -3.26794454     -0.88054032      2.89214650
 
 
 
