#p b3lyp 6-311+g(3df,2p) scf=tight nosymm

31_Uracil-Ethene_2_z_-30

0    1
    C      0.06954715      0.01070541      0.66460857
    H      0.15195881      0.93885493      1.21240175
    H      0.08368918     -0.90468024      1.23957896
    C     -0.03642706     -0.01015386     -0.66449829
    H     -0.04122343      0.90098660     -1.24611492
    H     -0.11283871     -0.94173364     -1.20717983
 
 
 
