#p b3lyp 6-311+g(3df,2p) scf=tight nosymm

31_Uracil-Ethene_2_y_+30

0    1
    C      0.75441817      0.03548903      0.55553891
    H      0.68822297      0.88049592      1.22629381
    H      1.44888350     -0.75018719      0.81850779
    C      0.01941641     -0.03556274     -0.55482803
    H     -0.66952458      0.75110986     -0.82866080
    H      0.09415279     -0.88054032     -1.22461175
 
 
 
