#p b3lyp 6-311+g(3df,2p) scf=tight nosymm

31_Uracil-Ethene_1_y_-30

0    1
    C     -3.40359426      0.03548903     -2.26313164
    H     -2.78960588      0.88049592     -2.54118236
    H     -3.52308920     -0.75018719     -2.99604070
    C     -3.99769936     -0.03556274     -1.07141797
    H     -3.89037501      0.75110986     -0.33786119
    H     -4.61511727     -0.88054032     -0.80124971
 
 
 
