#p b3lyp 6-311+g(3df,2p) scf=tight nosymm

33_Pyridine-Ethene_2_z_+30

0    1
    C      0.07195521      0.00034638     -0.66634423
    H      0.39717867     -0.86473825     -1.22595391
    H     -0.25468358      0.86368845     -1.22862471
    C      0.07227352     -0.00005070      0.66634302
    H      0.39774956     -0.86545684      1.22530151
    H     -0.25409279      0.86298325      1.22929151
 
 
 
