#p b3lyp 6-311+g(3df,2p) scf=tight nosymm

33_Pyridine-Ethene_1_z_-30

0    1
    C     -3.58727434      1.69487469      0.66634423
    H     -3.91249780      0.82979006      1.22595391
    H     -3.26063555      2.55821676      1.22862471
    C     -3.58759265      1.69447761     -0.66634302
    H     -3.91306869      0.82907147     -1.22530151
    H     -3.26122634      2.55751156     -1.22929151
 
 
 
