#p b3lyp 6-311+g(3df,2p) scf=tight nosymm

33_Pyridine-Ethene_2_z_-30

0    1
    C      0.22525965      0.00023928     -0.66634423
    H     -0.36131389     -0.71395481     -1.22595391
    H      0.80961642      0.71478781     -1.22862471
    C      0.22507492     -0.00023492      0.66634302
    H     -0.36165076     -0.71480851      1.22530151
    H      0.80930109      0.71392357      1.22929151
 
 
 
