#p b3lyp 6-311+g(3df,2p) scf=tight nosymm

33_Pyridine-Ethene_2_y_+30

0    1
    C      0.03741575      0.00033813     -0.57712458
    H     -0.37306413     -0.91145887     -0.98631550
    H     -0.11486550      0.91133369     -1.13847053
    C      0.70382617     -0.00016490      0.57697787
    H      0.85268059     -0.91236663      1.13646640
    H      1.11423034      0.91042758      0.99006783
 
 
 
