#p b3lyp 6-311+g(3df,2p) scf=tight nosymm

34_Pentane-Pentane_1_y_+30

0    1
    C     -5.88199219     -0.33448504     -0.28053309
    H     -5.10124577     -0.91566070     -0.77094821
    H     -6.61992982     -1.03484968      0.11062786
    H     -6.36940011      0.27589387     -1.03943911
    C     -5.30031841      0.51695194      0.84025806
    H     -6.09336310      1.10809200      1.30411992
    H     -4.58528968      1.23326147      0.42839904
    C     -4.61001526     -0.31751333      1.91063344
    H     -5.32383197     -1.03676580      2.32327841
    H     -3.81207663     -0.90764765      1.45014264
    C     -4.02825990      0.51806424      3.04285665
    H     -4.82651060      1.10958646      3.49722329
    H     -3.31409900      1.23404781      2.62891594
    C     -3.34844807     -0.33248435      4.10768554
    H     -2.53368856     -0.91436724      3.67705104
    H     -2.93451384      0.27846227      4.90856229
    H     -4.05632279     -1.03221380      4.55197556
 
 
 
