#p b3lyp 6-311+g(3df,2p) scf=tight nosymm

35_Neopentane-Pentane_2_y_-30

0    1
    C      0.42306585      0.00013603      0.00026631
    C      1.73529123      0.18339200      0.75770140
    H      2.56374710     -0.27474514      0.21568685
    H      1.96237358      1.24211251      0.89045679
    H      1.68135304     -0.27723383      1.74516416
    C      0.53177791      0.65600362     -1.37387994
    H     -0.39562081      0.53603413     -1.93530032
    H      0.73468414      1.72392128     -1.27980405
    H      1.33879864      0.20838131     -1.95597091
    C     -0.71353106      0.65038327      0.78485136
    H     -1.66338229      0.53141164      0.26199053
    H     -0.53228650      1.71795143      0.91863653
    H     -0.81319115      0.19783203      1.77257789
    C      0.13679417     -1.48976746     -0.16874863
    H      0.05391875     -1.98229457      0.80124424
    H     -0.79845889     -1.64695952     -0.70808571
    H      0.93559249     -1.97816848     -0.72886594
 
 
 
