#p b3lyp 6-311+g(3df,2p) scf=tight nosymm

35_Neopentane-Pentane_1_z_+30

0    1
    C     -4.57213950     -2.28035450     -0.00000519
    C     -5.97591554     -2.87921921      0.00014947
    H     -6.13348968     -3.49920588      0.88377577
    H     -6.73307232     -2.09385874     -0.00127890
    H     -6.13273289     -3.50164264     -0.88198746
    C     -4.38658456     -1.41589364      1.24439640
    H     -3.38794862     -0.97785975      1.26690135
    H     -5.11345912     -0.60242977      1.26437740
    H     -4.51598617     -2.00747342      2.15201233
    C     -4.38455073     -1.42120923     -1.24777423
    H     -3.38627111     -0.98222883     -1.26988909
    H     -5.11219891     -0.60859558     -1.27301331
    H     -4.51122818     -2.01690765     -2.15300054
    C     -3.53929838     -3.40443576      0.00323020
    H     -3.65089750     -4.03758886     -0.87824597
    H     -2.52572275     -3.00075736      0.00268328
    H     -3.65165870     -4.03326395      0.88770518
 
 
 
