#p b3lyp 6-311+g(3df,2p) scf=tight nosymm

35_Neopentane-Pentane_1_y_-30

0    1
    C     -5.11589068      0.00013603     -2.28047680
    C     -6.42811607      0.18339200     -3.03791189
    H     -7.25657194     -0.27474514     -2.49589734
    H     -6.65519841      1.24211251     -3.17066728
    H     -6.37417787     -0.27723383     -4.02537465
    C     -5.22460275      0.65600362     -0.90633055
    H     -4.29720403      0.53603413     -0.34491017
    H     -5.42750898      1.72392128     -1.00040644
    H     -6.03162348      0.20838131     -0.32423958
    C     -3.97929378      0.65038327     -3.06506185
    H     -3.02944254      0.53141164     -2.54220102
    H     -4.16053834      1.71795143     -3.19884703
    H     -3.87963369      0.19783203     -4.05278838
    C     -4.82961900     -1.48976746     -2.11146186
    H     -4.74674359     -1.98229457     -3.08145473
    H     -3.89436595     -1.64695952     -1.57212478
    H     -5.62841733     -1.97816848     -1.55134455
 
 
 
