#p b3lyp 6-311+g(3df,2p) scf=tight nosymm

36_Neopentane-Neopentane_1_z_+30

0    1
    C     -5.02404835     -2.65211709      0.00001192
    C     -3.86448458     -3.64500034     -0.00152879
    H     -2.90532429     -3.12522228     -0.00259771
    H     -3.89984888     -4.28491157      0.88137220
    H     -3.90203504     -4.28465273     -0.88453106
    C     -4.94354980     -1.77627467      1.24771694
    H     -5.76323897     -1.05666814      1.27080326
    H     -5.00070464     -2.38305501      2.15260129
    H     -4.00572590     -1.21955346      1.27413297
    C     -6.34600088     -3.41516557     -0.00052255
    H     -7.19189995     -2.72634205      0.00206175
    H     -6.42659192     -4.05293434      0.88084553
    H     -6.42847339     -4.04858552     -0.88484474
    C     -4.94430229     -1.77331308     -1.24568065
    H     -4.99908377     -2.37818249     -2.15200105
    H     -5.76565765     -1.05558128     -1.26795227
    H     -4.00775590     -1.21433500     -1.26985290
 
 
 
