#p b3lyp 6-311+g(3df,2p) scf=tight nosymm

36_Neopentane-Neopentane_2_z_-30

0    1
    C      0.50564144      0.00027849     -0.00001192
    C     -0.65392234     -0.99260476      0.00152879
    H     -1.61308263     -0.47282670      0.00259771
    H     -0.61855804     -1.63251599     -0.88137220
    H     -0.61637187     -1.63225715      0.88453106
    C      0.42514289      0.87612092     -1.24771694
    H      1.24483206      1.59572744     -1.27080326
    H      0.48229772      0.26934057     -2.15260129
    H     -0.51268102      1.43284212     -1.27413297
    C      1.82759397     -0.76276999      0.00052255
    H      2.67349304     -0.07394647     -0.00206175
    H      1.90818501     -1.40053876     -0.88084553
    H      1.91006648     -1.39618994      0.88484474
    C      0.42589537      0.87908250      1.24568065
    H      0.48067686      0.27421309      2.15200105
    H      1.24725073      1.59681430      1.26795227
    H     -0.51065102      1.43806058      1.26985290
 
 
 
