#p b3lyp 6-311+g(3df,2p) scf=tight nosymm

36_Neopentane-Neopentane_2_y_-30

0    1
    C      0.48713849      0.00000851     -0.00028145
    C      0.04662636     -1.43963550     -0.25283218
    H     -0.89834882     -1.46907464     -0.79717958
    H      0.79168977     -1.97613273     -0.84215587
    H     -0.08973432     -1.97481549      0.68804314
    C      0.67136619      0.71826102     -1.33464319
    H      0.98607746      1.75130314     -1.17960234
    H      1.42941809      0.22135125     -1.94185217
    H     -0.25986108      0.73148378     -1.90279011
    C      1.80874533      0.00016540      0.76336578
    H      2.14619245      1.01965361      0.95520687
    H      2.58603463     -0.51186303      0.19441777
    H      1.70271750     -0.50715611      1.72327789
    C     -0.57605064      0.72120207      0.82428790
    H     -0.72620860      0.22476054      1.78412283
    H     -0.28195692      1.75345372      1.01980005
    H     -1.53259117      0.73701809      0.29994068
 
 
 
