#p b3lyp 6-311+g(3df,2p) scf=tight nosymm

37_Cyclopentane-Neopentane_2_z_+30

0    1
    C      0.56001302     -0.00082692     -0.00000533
    C      1.99015025      0.53226777      0.00979063
    H      2.18026273      1.14953507     -0.86932988
    H      2.17134155      1.14122918      0.89655471
    H      2.70987127     -0.28751801      0.00955145
    C     -0.41929784      1.17026971      0.00000000
    H     -1.45098794      0.81564723     -0.00623275
    H     -0.28153802      1.79168476      0.88608774
    H     -0.27331368      1.79874179     -0.87977875
    C      0.32998786     -0.85655629      1.24340027
    H     -0.68906177     -1.24480144      1.26849124
    H      0.48974657     -0.27166113      2.15049656
    H      1.01520887     -1.70545953      1.26359427
    C      0.34338132     -0.84568038     -1.25318754
    H      1.02769960     -1.69531084     -1.27263591
    H     -0.67575235     -1.23237674     -1.29330613
    H      0.51416196     -0.25344103     -2.15346906
 
 
 
