#p b3lyp 6-311+g(3df,2p) scf=tight nosymm

37_Cyclopentane-Neopentane_1_y_+30

0    1
    C     -4.58530215     -0.00024696      2.33214088
    C     -5.89363983     -0.25364204      3.07619859
    H     -5.86394852      0.18587089      4.07417722
    H     -6.73660337      0.18313837      2.53893686
    H     -6.07833335     -1.32345785      3.18310762
    C     -4.35792138      1.50360790      2.20085638
    H     -3.42748140      1.71234087      1.67086356
    H     -5.17336573      1.97288921      1.64848740
    H     -4.29965653      1.97488861      3.18309814
    C     -4.66394439     -0.62631776      0.94178389
    H     -3.74408757     -0.45302310      0.38173175
    H     -5.49057860     -0.19966304      0.37161680
    H     -4.82037127     -1.70410003      1.00877896
    C     -3.43040499     -0.62359568      3.11241086
    H     -3.56601873     -1.70155638      3.21316454
    H     -2.47855101     -0.44891771      2.60918267
    H     -3.36479688     -0.19609167      4.11408755
 
 
 
