#p b3lyp 6-311+g(3df,2p) scf=tight nosymm

37_Cyclopentane-Neopentane_1_z_-30

0    1
    C     -4.81810515      2.33192239      0.00000533
    C     -6.24824238      2.86501707     -0.00979063
    H     -6.43835486      3.48228438      0.86932988
    H     -6.42943369      3.47397849     -0.89655471
    H     -6.96796340      2.04523130     -0.00955145
    C     -3.83879429      3.50301901      0.00000000
    H     -2.80710419      3.14839653      0.00623275
    H     -3.97655411      4.12443407     -0.88608774
    H     -3.98477845      4.13149110      0.87977875
    C     -4.58808000      1.47619301     -1.24340027
    H     -3.56903036      1.08794787     -1.26849124
    H     -4.74783870      2.06108818     -2.15049656
    H     -5.27330100      0.62728978     -1.26359427
    C     -4.60147345      1.48706892      1.25318754
    H     -5.28579173      0.63743846      1.27263591
    H     -3.58233978      1.10037257      1.29330613
    H     -4.77225409      2.07930827      2.15346906
 
 
 
