#p b3lyp 6-311+g(3df,2p) scf=tight nosymm

38_Cyclopentane-Cyclopentane_2_z_-30

0    1
    C     -0.09684196     -0.44394740     -1.10357816
    H     -1.17930630     -0.30234785     -1.08007410
    H      0.15351157     -0.91213079     -2.05426393
    C      0.61710594      0.90054759     -0.89538025
    H      0.06510765      1.73029709     -1.33369680
    H      1.59364728      0.87734433     -1.37810640
    C      0.78545573      1.04807597      0.63908728
    H      0.27956961      1.93160536      1.02450353
    H      1.83953434      1.14946722      0.89405447
    C      0.21396794     -0.24592717      1.24660750
    H     -0.83888564     -0.10798531      1.49899994
    H      0.73215398     -0.54898862      2.15486809
    C      0.32399587     -1.26527581      0.11344631
    H     -0.28771700     -2.15262182      0.27031886
    H      1.36219092     -1.58686558      0.00121957
 
 
 
