#p b3lyp 6-311+g(3df,2p) scf=tight nosymm

40_Benzene-Neopentane_2_z_-30

0    1
    C      1.69859201     -2.07671044     -0.00292919
    C      0.89163350     -2.43755704      1.24173856
    H      0.66365192     -3.50460146      1.26169313
    H      1.44780207     -2.19359348      2.14836479
    H     -0.04889482     -1.88549679      1.26326049
    C      3.01059178     -2.85633417     -0.00342923
    H      3.60547185     -2.61414013     -0.88536073
    H      3.60412591     -2.61754544      0.88034824
    H      2.82490155     -3.93155776     -0.00565987
    C      1.99174154     -0.57851986     -0.00017438
    H      2.56918943     -0.29598868     -0.88223988
    H      2.56774775     -0.29892516      0.88375609
    H      1.06711817      0.00000000      0.00000000
    C      0.89337399     -2.43317463     -1.24999002
    H     -0.04704466     -1.88087695     -1.27094451
    H      1.45086918     -2.18621993     -2.15499903
    H      0.66517649     -3.50008430     -1.27386895
 
 
 
