#p b3lyp 6-311+g(3df,2p) scf=tight nosymm

41_Uracil-Pentane_1_z_-30

0    1
    C     -3.60877619      2.17270793      2.52413056
    H     -2.52510114      2.08552115      2.61481290
    H     -3.84540399      3.23629095      2.49653576
    H     -4.05821384      1.75449042      3.42403972
    C     -4.10327584      1.47381897      1.26423444
    H     -5.18835209      1.57592398      1.19115134
    H     -3.90229841      0.40165173      1.32380772
    C     -3.46278201      2.03173394      0.00000000
    H     -3.68475239      3.10050051     -0.07767902
    H     -2.37343602      1.95731214      0.08118933
    C     -3.92462052      1.32702207     -1.26858141
    H     -5.00903663      1.42755045     -1.35612219
    H     -3.72516891      0.25691198     -1.17527492
    C     -3.25373559      1.87946988     -2.51975067
    H     -2.16967372      1.77612149     -2.46461052
    H     -3.59329143      1.36505425     -3.41770778
    H     -3.47565966      2.93987969     -2.64053459
 
 
 
