#p b3lyp 6-311+g(3df,2p) scf=tight nosymm

42_Uracil-Cyclopentane_2_y_-30

0    1
    C      1.00290590     -1.06991934     -0.57539701
    H      0.38092094     -1.30027135     -1.44179105
    H      1.77440542     -1.83588540     -0.51827635
    C      1.56876232      0.34196236     -0.73600644
    H      1.93168613      0.54525637     -1.74264227
    H      2.39759560      0.49548386     -0.04078958
    C      0.38748761      1.21740135     -0.32304617
    H     -0.36095552      1.20658361     -1.11843496
    H      0.65674201      2.25659374     -0.13735821
    C     -0.15519291      0.50901303      0.92477391
    H     -1.21396839      0.70011571      1.09139772
    H      0.37775750      0.86990968      1.80465463
    C      0.14396639     -0.99525817      0.70420383
    H     -0.77310606     -1.57478365      0.61361089
    H      0.68940619     -1.40112496      1.55483254
 
 
 
