#p b3lyp 6-311+g(3df,2p) scf=tight nosymm

42_Uracil-Cyclopentane_2_y_+30

0    1
    C      0.04765163     -1.06991934     -0.64608445
    H     -1.01366010     -1.30027135     -0.54062669
    H      0.48286933     -1.83588540     -1.28566230
    C      0.19148799      0.34196236     -1.21643520
    H     -0.49882230      0.54525637     -2.03405435
    H      1.20798010      0.49548386     -1.58661744
    C     -0.04151528      1.21740135      0.01305884
    H     -1.10456374      1.20658361      0.26353522
    H      0.25392242      2.25659374     -0.12727832
    C      0.76778835      0.50901303      1.10694401
    H      0.38270106      0.70011571      2.10718237
    H      1.79626261      0.86990968      1.08533577
    C      0.72634871     -0.99525817      0.73757941
    H      0.18935669     -1.57478365      1.48649097
    H      1.73573468     -1.40112496      0.69052904
 
 
 
