#p b3lyp 6-311+g(3df,2p) scf=tight nosymm

43_Uracil-Neopentane_1_y_+30

0    1
    C     -4.42248722     -0.00031317      2.18677155
    C     -5.59473066      0.60196025      1.41695858
    H     -6.46385644     -0.05610625      1.45658107
    H     -5.88185207      1.56665055      1.83816918
    H     -5.33323233      0.75268983      0.36858048
    C     -4.81753465     -0.20073930      3.64738725
    H     -3.99284148     -0.63212542      4.21648067
    H     -5.08865767      0.74908464      4.11071521
    H     -5.67284351     -0.87288479      3.72885276
    C     -3.22643672      0.94605742      2.11286548
    H     -2.37282080      0.53249297      2.65310995
    H     -3.47172928      1.91314439      2.55555465
    H     -2.93091031      1.11681223      1.07581822
    C     -4.04940785     -1.34697025      1.57132223
    H     -3.78583807     -1.23670740      0.51809729
    H     -3.20073118     -1.78846898      2.09731470
    H     -4.88578029     -2.04452147      1.63601638
 
 
 
