#p b3lyp 6-311+g(3df,2p) scf=tight nosymm

45_Ethyne-Pentane_1_y_+30

0    1
    C     -3.34604414      2.53033358      1.52815037
    H     -2.94564633      2.53843455      0.51398285
    H     -4.43208910      2.58210861      1.45142851
    H     -3.00379113      3.43294011      2.03248554
    C     -2.91427417      1.27007454      2.26620727
    H     -3.30383317      1.28699500      3.28672996
    H     -1.82566743      1.24495349      2.35065369
    C     -3.38149745     -0.00010859      1.56945335
    H     -4.47384085     -0.00025113      1.50644688
    H     -3.00940274     -0.00044866      0.54158578
    C     -2.91404500     -1.26974249      2.26706669
    H     -3.30362734     -1.28610152      3.28757833
    H     -1.82546202     -1.24445164      2.35145765
    C     -3.34566047     -2.53053793      1.52981272
    H     -2.94530288     -2.53918336      0.51564156
    H     -3.00322439     -3.43272469      2.03474086
    H     -4.43170250     -2.58249844      1.45319129
 
 
 
