#p b3lyp 6-311+g(3df,2p) scf=tight nosymm

47_Benzene-Benzene_TS_2_y_+30

0    1
    C      0.88754013     -0.39543530     -0.69810028
    H      0.16266755      0.00000000      0.00000000
    C      0.93437303     -1.76536063     -0.95119803
    H      0.24361906     -2.42686825     -0.44599568
    C      1.86630073     -2.27931531     -1.85129215
    H      1.90151041     -3.34258347     -2.04682978
    C      2.75366213     -1.42241825     -2.50044064
    H      3.47698484     -1.82043542     -3.19916842
    C      2.70855742     -0.05233530     -2.24863772
    H      3.39708239      0.61264559     -2.75225537
    C      1.77607673      0.45976766     -1.34779300
    H      1.74106917      1.52317924     -1.15236739
 
 
 
