#p b3lyp 6-311+g(3df,2p) scf=tight nosymm

47_Benzene-Benzene_TS_2_y_-30

0    1
    C      0.97342631     -0.39543530      0.27870793
    H      0.00641744      0.00000000      0.00000000
    C      1.21603185     -1.76536063      0.19271754
    H      0.43313679     -2.42686825     -0.15289177
    C      2.46150007     -2.27931531      0.54974355
    H      2.64844546     -3.34258347      0.48246721
    C      3.46735985     -1.42241825      0.99364681
    H      4.43413721     -1.82043542      1.27069876
    C      3.22673976     -0.05233530      1.08048645
    H      4.00714793      0.61264559      1.42495774
    C      1.98034501      0.45976766      0.72335683
    H      1.79359769      1.52317924      0.79075221
 
 
 
