#p b3lyp 6-311+g(3df,2p) scf=tight nosymm

47_Benzene-Benzene_TS_2_z_-30

0    1
    C      1.53478845     -0.83086112     -0.24213629
    H      0.88656538      0.00000000      0.00000000
    C      0.99454501     -2.10080494     -0.43790892
    H     -0.07303332     -2.24828151     -0.34576783
    C      1.82626563     -3.17446281     -0.75144944
    H      1.40570909     -4.15941069     -0.90318515
    C      3.20132475     -2.97889407     -0.86994782
    H      3.84736620     -3.81147691     -1.11340248
    C      3.74350383     -1.70988578     -0.67443245
    H      4.81046084     -1.55803991     -0.76631565
    C      2.91011758     -0.63740445     -0.36051839
    H      3.33094593      0.34755211     -0.20877862
 
 
 
