#p b3lyp 6-311+g(3df,2p) scf=tight nosymm

48_Pyridine-Pyridine_TS_2_z_-30

0    1
    N      2.87806257     -3.50342395     -0.04783135
    C      1.54470572     -3.36429129     -0.03788877
    H      0.97407588     -4.28493846     -0.04399952
    C      0.89105840     -2.13448620     -0.02074040
    H     -0.18882598     -2.08321640     -0.01349043
    C      1.65884021     -0.97391343     -0.01331966
    H      1.18815366      0.00000000      0.00000000
    C      3.04432485     -1.09903934     -0.02340059
    H      3.68592568     -0.22898343     -0.01821529
    C      3.60123329     -2.37543333     -0.04047305
    H      4.67693048     -2.50253755     -0.04865107
 
 
 
