#p b3lyp 6-311+g(3df,2p) scf=tight nosymm

48_Pyridine-Pyridine_TS_1_z_-30

0    1
    N     -6.52171442      0.99889233      0.04783135
    C     -5.73454358     -0.08626224      0.03788877
    H     -6.24653251     -1.04076577      0.04399952
    C     -4.34267748     -0.03743488      0.02074040
    H     -3.75833433     -0.94700729      0.01349043
    C     -3.72148288      1.20777005      0.01331966
    H     -2.64270583      1.28710026     -0.00000000
    C     -4.52258741      2.34507199      0.02340059
    H     -4.08989731      3.33574256      0.01821529
    C     -5.90643126      2.18917185      0.04047305
    H     -6.55435533      3.05720084      0.04865107
 
 
 
