#p b3lyp 6-311+g(3df,2p) scf=tight nosymm

48_Pyridine-Pyridine_TS_2_y_-30

0    1
    N      2.87200671     -2.18909968      1.56618484
    C      1.80677158     -2.73528569      0.96265176
    H      1.78050650     -3.81790445      0.94043152
    C      0.77544068     -1.99706690      0.38701382
    H     -0.06029807     -2.49260814     -0.08712863
    C      0.84502392     -0.60809050      0.43575645
    H      0.06363228      0.00000000      0.00000000
    C      1.94335896     -0.02371039      1.05824003
    H      2.04522168      1.05058054      1.12303796
    C      2.92227134     -0.85064579      1.60370177
    H      3.78817098     -0.42287268      2.09418601
 
 
 
