#p b3lyp 6-311+g(3df,2p) scf=tight nosymm

48_Pyridine-Pyridine_TS_2_y_+30

0    1
    N      2.83481837     -2.18909968     -1.64903118
    C      1.77952582     -2.73528569     -1.02827703
    H      1.74714999     -3.81790445     -1.01664092
    C      0.76534330     -1.99706690     -0.42293724
    H     -0.06314549     -2.49260814      0.06376252
    C      0.84234727     -0.60809050     -0.45882678
    H      0.07427530      0.00000000      0.00000000
    C      1.93060139     -0.02371039     -1.09877104
    H      2.03764940      1.05058054     -1.15458778
    C      2.89244130     -0.85064579     -1.67380315
    H      3.75016293     -0.42287268     -2.17845212
 
 
 
