#p b3lyp 6-311+g(3df,2p) scf=tight nosymm

49_Benzene-Pyridine_TS_1_z_+30

0    1
    N     -6.59067408     -1.60233508     -0.08695191
    C     -5.99664089     -0.40204900     -0.03282904
    H     -6.66071781      0.45357296     -0.01509689
    C     -4.61629764     -0.22165722      0.00000000
    H     -4.19712782      0.77366061      0.04331584
    C     -3.79236865     -1.34227568     -0.02408907
    H     -2.71643734     -1.23876461     -0.00000000
    C     -4.39401886     -2.59529564     -0.08006808
    H     -3.80141609     -3.49919131     -0.10081818
    C     -5.78429467     -2.67238551     -0.10949859
    H     -6.27768204     -3.63568479     -0.15318937
 
 
 
