#p b3lyp 6-311+g(3df,2p) scf=tight nosymm

50_Benzene-Ethyne_CH-pi_1_z_+30

0    1
    C     -3.59790541     -1.74545130     -0.00586205
    H     -2.67385313     -1.21756214      0.00000000
    C     -4.65083383     -2.34673648     -0.01297945
    H     -5.57248027     -2.87301956     -0.01911582
 
 
 
