#p b3lyp 6-311+g(3df,2p) scf=tight nosymm

50_Benzene-Ethyne_CH-pi_1_y_+30

0    1
    C     -3.59323983      0.00486071      1.74458412
    H     -2.66868690      0.00000000      1.21756214
    C     -4.64685897      0.01059668      2.34467295
    H     -5.56904925      0.01564538      2.87001407
 
 
 
