#p b3lyp 6-311+g(3df,2p) scf=tight nosymm

50_Benzene-Ethyne_CH-pi_2_y_-30

0    1
    C      0.98297389      0.00486071      0.53717534
    H      0.06428300      0.00000000      0.00000000
    C      2.02947563      0.01059668      1.14959187
    H      2.94552953      0.01564538      1.68556151
 
 
 
