#p b3lyp 6-311+g(3df,2p) scf=tight nosymm

50_Benzene-Ethyne_CH-pi_2_z_+30

0    1
    C      0.98335666      0.53630816      0.00586205
    H      0.06416510      0.00000000      0.00000000
    C      2.03054912      1.14752834      0.01297945
    H      2.94714686      1.68255602      0.01911582
 
 
 
