#p b3lyp 6-311+g(3df,2p) scf=tight nosymm

51_Ethyne-Ethyne_TS_2_z_-30

0    1
    C      1.01246815     -0.53176451      0.00385915
    H      0.09107711      0.00000000      0.00000000
    C      2.06228360     -1.13756719      0.00840194
    H      2.98153826     -1.66823793      0.01253572
 
 
 
