#p b3lyp 6-311+g(3df,2p) scf=tight nosymm

51_Ethyne-Ethyne_TS_1_y_+30

0    1
    C     -3.27463078      0.00017395      1.88618744
    H     -2.35139714      0.00000000      1.35761442
    C     -4.32658402      0.00044116      2.48828737
    H     -5.24787908      0.00049415      3.01542404
 
 
 
