#p b3lyp 6-311+g(3df,2p) scf=tight nosymm

51_Ethyne-Ethyne_TS_2_y_-30

0    1
    C      1.01369493      0.00017395      0.53525728
    H      0.09432044      0.00000000      0.00000000
    C      2.06110537      0.00044116      1.14522554
    H      2.97826665      0.00049415      1.67952213
 
 
 
