#p b3lyp 6-311+g(3df,2p) scf=tight nosymm

52_Benzene-AcOH_OH-pi_1_z_+30

0    1
    C     -3.25781637     -1.93546777      0.00000000
    O     -2.23625119     -2.58018935      0.07153196
    O     -3.28010970     -0.58683028     -0.05735850
    H     -2.35183394     -0.29592948     -0.02747129
    C     -4.64724804     -2.50016969     -0.03454670
    H     -4.59963971     -3.58217447     -0.01026958
    H     -5.21133085     -2.13053281      0.81871205
    H     -5.15702644     -2.16493213     -0.93459009
 
 
 
