#p b3lyp 6-311+g(3df,2p) scf=tight nosymm

52_Benzene-AcOH_OH-pi_1_z_-30

0    1
    C     -4.30031339      1.93546777      0.00000000
    O     -4.34787607      0.72840558      0.07153196
    O     -3.14350572      2.62909310     -0.05735850
    H     -2.42744036      1.97063311     -0.02747129
    C     -5.48407543      2.85639993     -0.03454670
    H     -6.39731489      2.27416752     -0.01026958
    H     -5.44600191      3.52972842      0.81871205
    H     -5.44864039      3.46549976     -0.93459009
 
 
 
