#p b3lyp 6-311+g(3df,2p) scf=tight nosymm

52_Benzene-AcOH_OH-pi_2_z_+30

0    1
    C      0.53943001      0.00000000      0.00000000
    O      0.58699269     -1.20706219     -0.07153196
    O     -0.61737766      0.69362533      0.05735850
    H     -1.33344303      0.03516534      0.02747129
    C      1.72319205      0.92093216      0.03454670
    H      2.63643151      0.33869975      0.01026958
    H      1.68511853      1.59426065     -0.81871205
    H      1.68775700      1.53003199      0.93459009
 
 
 
