#p b3lyp 6-311+g(3df,2p) scf=tight nosymm

53_Benzene-AcNH2_NH-pi_1_y_+30

0    1
    C     -3.23002370     -1.86992153      1.61384898
    O     -2.30394000     -2.49702992      1.12044312
    N     -3.25051192     -0.51079850      1.66740780
    H     -2.49449343      0.00000000      1.24135327
    H     -4.03698551     -0.01278305      2.03523046
    C     -4.44127911     -2.55844684      2.20005957
    H     -5.01515062     -2.99795665      1.38685472
    H     -5.08489744     -1.89121655      2.76787106
    H     -4.10174113     -3.36762522      2.83989907
 
 
 
