#p b3lyp 6-311+g(3df,2p) scf=tight nosymm

55_Benzene-MeOH_OH-pi_1_y_-30

0    1
    O     -3.26335030      0.66987623     -1.62270627
    H     -2.43093148      0.67883077     -1.13988251
    C     -3.59850565     -0.68577430     -1.84994207
    H     -4.53916420     -0.69527342     -2.39388642
    H     -2.84856547     -1.20363323     -2.45231314
    H     -3.73483473     -1.24136869     -0.91925669
 
 
 
