#p b3lyp 6-311+g(3df,2p) scf=tight nosymm

55_Benzene-MeOH_OH-pi_2_y_+30

0    1
    O     -0.10927552      0.66987623      0.07331481
    H     -0.94362258      0.67883077      0.55279876
    C      0.25509413     -0.68577430     -0.10332034
    H      1.19649302     -0.69527342     -0.64598237
    H      0.40179269     -1.20363323      0.84733244
    H     -0.48273852     -1.24136869     -0.68672748
 
 
 
