#p b3lyp 6-311+g(3df,2p) scf=tight nosymm

55_Benzene-MeOH_OH-pi_2_z_-30

0    1
    O      0.51807197      0.66589590     -0.01437748
    H     -0.31083370      1.15480463     -0.01630572
    C      0.19000921     -0.71006737      0.01483682
    H      1.12628837     -1.26159704      0.01557717
    H     -0.37054107     -0.98440551      0.91147556
    H     -0.38853977     -1.01758711     -0.85932490
 
 
 
