#p b3lyp 6-311+g(3df,2p) scf=tight nosymm

56_Benzene-MeNH2_NH-pi_1_y_-30

0    1
    N     -3.60257385     -0.66319376     -1.51468860
    H     -2.70459511     -0.70262825     -1.04747032
    H     -4.29242064     -0.76258740     -0.78114063
    C     -3.75422970      0.64752485     -2.14300784
    H     -4.72651197      0.70456222     -2.62893550
    H     -3.66251223      1.50161810     -1.46417651
    H     -2.99896650      0.75908083     -2.91849554
 
 
 
