#p b3lyp 6-311+g(3df,2p) scf=tight nosymm

56_Benzene-MeNH2_NH-pi_1_z_+30

0    1
    N     -3.17229058     -2.27148177      0.21067572
    H     -2.27677783     -1.79999227      0.16630925
    H     -3.32234326     -2.47288461      1.19087030
    C     -4.21346199     -1.35911487     -0.25763678
    H     -5.18160522     -1.85221156     -0.19232134
    H     -4.27777792     -0.41002576      0.28438967
    H     -4.03858860     -1.12933793     -1.30686043
 
 
 
