#p b3lyp 6-311+g(3df,2p) scf=tight nosymm

56_Benzene-MeNH2_NH-pi_2_z_-30

0    1
    N     -0.16597713     -0.47269143     -0.21067572
    H     -1.06148987     -0.00120192     -0.16630925
    H     -0.01592445     -0.67409427     -1.19087030
    C      0.87519428      0.43967547      0.25763678
    H      1.84333751     -0.05342121      0.19232134
    H      0.93951021      1.38876458     -0.28438967
    H      0.70032089      0.66945241      1.30686043
 
 
 
