#p b3lyp 6-311+g(3df,2p) scf=tight nosymm

57_Benzene-Peptide_NH-pi_2_y_+30

0    1
    C      1.62457303      1.97080240     -0.79139992
    H      0.94033874      2.07868421      0.04686126
    H      1.28152889      2.59090886     -1.61689044
    H      2.61174240      2.32349981     -0.50366953
    C      1.74860226      0.54569299     -1.28082248
    O      2.54310285      0.23256512     -2.15954915
    N      0.92029108     -0.34257880     -0.67096131
    H      0.25382815      0.00000000      0.00000000
    C      0.87733867     -1.73325733     -1.05705499
    H      1.74072096     -1.92178594     -1.68782889
    H      0.92043798     -2.37479907     -0.17912814
    H     -0.02770446     -1.96650142     -1.61846136
 
 
 
