#p b3lyp 6-311+g(3df,2p) scf=tight nosymm

57_Benzene-Peptide_NH-pi_1_z_-30

0    1
    C     -2.98941920      3.68327426      0.00000000
    H     -2.05932484      3.27085521     -0.38383834
    H     -2.77953075      4.27813237      0.88641783
    H     -3.42885661      4.34424346     -0.74276652
    C     -4.00692201      2.62515518      0.36183775
    O     -5.13986120      2.91768901      0.72558707
    N     -3.56574689      1.34475469      0.24783808
    H     -2.60407552      1.18510939     -0.00000000
    C     -4.39605532      0.21831624      0.60368121
    H     -5.41098945      0.58659465      0.71825629
    H     -4.36899719     -0.53809437     -0.17817540
    H     -4.07699110     -0.23522265      1.54239496
 
 
 
