#p b3lyp 6-311+g(3df,2p) scf=tight nosymm

57_Benzene-Peptide_NH-pi_2_z_+30

0    1
    C      1.11791012      2.49816487      0.00000000
    H      0.18781576      2.08574582      0.38383834
    H      0.90802166      3.09302298     -0.88641783
    H      1.55734753      3.15913406      0.74276652
    C      2.13541293      1.44004579     -0.36183775
    O      3.26835212      1.73257962     -0.72558707
    N      1.69423780      0.15964530     -0.24783808
    H      0.73256644      0.00000000      0.00000000
    C      2.52454623     -0.96679315     -0.60368121
    H      3.53948037     -0.59851475     -0.71825629
    H      2.49748811     -1.72320376      0.17817540
    H      2.20548202     -1.42033205     -1.54239496
 
 
 
