#p b3lyp 6-311+g(3df,2p) scf=tight nosymm

58_Pyridine-Pyridine_CH-N_1_z_-30

0    1
    N     -3.53720163      0.68403401      0.00810806
    C     -4.87634779      0.73577374      0.02016120
    H     -5.38822690     -0.21882811      0.02556260
    C     -5.60482906      1.92198979      0.02583604
    H     -6.68518169      1.89432485      0.03570293
    C     -4.91338170      3.12889020      0.01857360
    H     -5.44357459      4.07126588      0.02264139
    C     -3.52322602      3.09169668      0.00600834
    H     -2.93921947      4.00100474      0.00000000
    C     -2.88102827      1.85552288      0.00124899
    H     -1.79864635      1.79575703     -0.00810806
 
 
 
