#p b3lyp 6-311+g(3df,2p) scf=tight nosymm

58_Pyridine-Pyridine_CH-N_2_y_-30

0    1
    N      0.46399286     -0.91602901      0.23042109
    C      1.49678301     -1.54079416      0.81278500
    H      1.47003832     -2.62344317      0.79110694
    C      2.55962800     -0.87774157      1.41986610
    H      3.36284665     -1.44187643      1.87221130
    C      2.56001447      0.51318852      1.42847517
    H      3.36775367      1.06421337      1.89012654
    C      1.49500981      1.17605583      0.82810356
    H      1.44774267      2.25554299      0.80775169
    C      0.47570287      0.42659679      0.24510205
    H     -0.36664147      0.91602901     -0.23042109
 
 
 
