#p b3lyp 6-311+g(3df,2p) scf=tight nosymm

60_Ethyne-AcOH_OH-pi_1_y_-30

0    1
    C     -3.17658669     -1.31639265     -1.84369207
    O     -2.48919533     -2.23061038     -1.44518014
    O     -2.86001266     -0.01784138     -1.65946525
    H     -2.01787716     -0.00000000     -1.17118320
    C     -4.46712927     -1.45953508     -2.59254569
    H     -4.69365279     -2.51015681     -2.72769313
    H     -5.26548176     -0.97041743     -2.03942440
    H     -4.38557314     -0.96456589     -3.55733341
 
 
 
