#p b3lyp 6-311+g(3df,2p) scf=tight nosymm

60_Ethyne-AcOH_OH-pi_2_y_+30

0    1
    C      1.25561440     -1.31639265     -0.66721745
    O      0.56679727     -2.23061038     -0.27117504
    O      0.93778228     -0.01784138     -0.48516971
    H      0.09384987      0.00000000      0.00000000
    C      2.54941196     -1.45953508     -1.41043331
    H      2.77971483     -2.51015681     -1.53903471
    H      2.46957111     -0.97041743     -2.37838749
    H      3.34416456     -0.96456589     -0.85740977
 
 
 
