#p b3lyp 6-311+g(3df,2p) scf=tight nosymm

61_Pentane-AcOH_1_z_+30

0    1
    C     -3.91939178     -1.81016697      0.01482059
    O     -4.44510950     -0.78563835      0.38232338
    O     -3.69755588     -2.85673799      0.84733427
    H     -4.03427378     -2.57410111      1.71066418
    C     -3.42699879     -2.10466499     -1.36840448
    H     -3.64470505     -1.26435115     -2.01675552
    H     -2.35478844     -2.28615265     -1.33910868
    H     -3.90423189     -3.00662233     -1.74418278
 
 
 
