#p b3lyp 6-311+g(3df,2p) scf=tight nosymm

62_Pentane-AcNH2_1_z_-30

0    1
    C     -3.60867605      1.73205520     -0.01526672
    O     -4.00210656      0.57645201     -0.02466833
    N     -3.32169495      2.41430830     -1.16016959
    H     -3.34734251      1.90861019     -2.02786899
    H     -2.89692674      3.32079394     -1.13819118
    C     -3.39739946      2.50432322      1.26520152
    H     -3.29410785      3.57524162      1.10892334
    H     -2.49742909      2.12800296      1.74874102
    H     -4.23564042      2.31132344      1.92781804
 
 
 
