#p b3lyp 6-311+g(3df,2p) scf=tight nosymm

62_Pentane-AcNH2_2_y_+30

0    1
    C      0.54097801     -0.09010361      0.01920808
    O      0.34036083     -1.28760058      0.14589051
    N      1.19361787      0.64423546      0.96442624
    H      1.42772954      0.19346427      1.83119477
    H      1.25657230      1.64165916      0.90270100
    C      0.07668830      0.68433842     -1.19129150
    H      0.54107996      1.66342676     -1.27895365
    H     -1.00301067      0.80842069     -1.12627033
    H      0.29048941      0.09807522     -2.07985327
 
 
 
