#p b3lyp 6-311+g(3df,2p) scf=tight nosymm

62_Pentane-AcNH2_1_z_+30

0    1
    C     -3.63184037     -1.88811922     -0.01526672
    O     -2.82777390     -2.80664164     -0.02466833
    N     -4.07919833     -1.29845975     -1.16016959
    H     -3.65407471     -1.57352025     -2.02786899
    H     -4.65185382     -0.47735687     -1.13819118
    C     -4.19500580     -1.31901431      1.26520152
    H     -5.07080254     -0.69410196      1.10892334
    H     -3.41911771     -0.72777725      1.74874102
    H     -4.44698357     -2.14145217      1.92781804
 
 
 
