#p b3lyp 6-311+g(3df,2p) scf=tight nosymm

63_Benzene-AcOH_1_z_+30

0    1
    C     -4.22535997     -0.54865432     -0.54654135
    O     -4.35597386     -0.26053030     -1.71352970
    O     -4.73916535      0.21613076      0.45055827
    H     -5.17664892      0.95412747      0.00113400
    C     -3.50258461     -1.73851361      0.00000000
    H     -3.19890890     -2.38274190     -0.81636126
    H     -2.62363585     -1.39777851      0.54549414
    H     -4.14399518     -2.27543023      0.69468716
 
 
 
