#p b3lyp 6-311+g(3df,2p) scf=tight nosymm

63_Benzene-AcOH_1_z_-30

0    1
    C     -3.05021168      2.95938508     -0.54654135
    O     -2.86599590      3.21656203     -1.71352970
    O     -2.64479107      3.78674613      0.45055827
    H     -2.22440895      4.53461637      0.00113400
    C     -3.71927238      1.73851361      0.00000000
    H     -4.12535259      1.15340858     -0.81636126
    H     -2.98471274      1.14768921      0.54549414
    H     -4.50496110      2.02553315      0.69468716
 
 
 
