#p b3lyp 6-311+g(3df,2p) scf=tight nosymm

64_Peptide-Ethene_2_z_-30

0    1
    C      0.35245673      0.43175472     -0.48827479
    H      1.12895352      0.23783013     -1.21484426
    H     -0.19411843      1.36030659     -0.57800692
    C      0.07728960     -0.43278763      0.48836090
    H      0.62613720     -1.35936926      0.58255600
    H     -0.70118283     -0.22645929      1.20926911
 
 
 
