#p b3lyp 6-311+g(3df,2p) scf=tight nosymm

64_Peptide-Ethene_1_z_-30

0    1
    C     -3.57677798      2.15133980      0.48827479
    H     -4.13297000      2.72684345      1.21484426
    H     -2.49934089      2.14226776      0.57800692
    C     -4.18791006      1.48076690     -0.48836090
    H     -5.26477709      1.49279204     -0.58255600
    H     -3.61998826      0.90975416     -1.20926911
 
 
 
