#p b3lyp 6-311+g(3df,2p) scf=tight nosymm

65_Pyridine-Ethyne_1_z_+30

0    1
    C     -4.03053449     -2.27365669      0.06156253
    H     -4.94765115     -2.80695196      0.09101013
    C     -2.98188547     -1.66399712      0.02801087
    H     -2.05591270     -1.12648362     -0.00000000
 
 
 
