#p b3lyp 6-311+g(3df,2p) scf=tight nosymm

65_Pyridine-Ethyne_1_y_-30

0    1
    C     -4.01435718     -0.00617013     -2.21499850
    H     -4.94784210     -0.00945905     -2.71994310
    C     -2.94710425     -0.00251396     -1.63756184
    H     -2.00586906     -0.00000000     -1.12648362
 
 
 
