#p b3lyp 6-311+g(3df,2p) scf=tight nosymm

65_Pyridine-Ethyne_1_z_-30

0    1
    C     -4.04115439      2.26296972      0.06156253
    H     -4.96155998      2.79056841      0.09101013
    C     -2.98884921      1.65964282      0.02801087
    H     -2.06036247      1.12648362     -0.00000000
 
 
 
