#p b3lyp 6-311+g(3df,2p) scf=tight nosymm

65_Pyridine-Ethyne_1_y_+30

0    1
    C     -3.95362513     -0.00617013      2.32162792
    H     -4.85766245     -0.00945905      2.87757727
    C     -2.91992386     -0.00251396      1.68607810
    H     -2.00669954     -0.00000000      1.12648362
 
 
 
