#p b3lyp 6-311+g(3df,2p) scf=tight nosymm

65_Pyridine-Ethyne_2_z_+30

0    1
    C      2.07620890      1.13648610     -0.06156253
    H      2.99661448      1.66408479     -0.09101013
    C      1.02390371      0.53315920     -0.02801087
    H      0.09541698     -0.00000000     -0.00000000
 
 
 
