#p b3lyp 6-311+g(3df,2p) scf=tight nosymm

65_Pyridine-Ethyne_2_y_-30

0    1
    C      2.10880199     -0.00617013      1.08851487
    H      3.04228691     -0.00945905      1.59345948
    C      1.04154906     -0.00251396      0.51107822
    H      0.10031387     -0.00000000     -0.00000000
 
 
 
