#p b3lyp 6-311+g(3df,2p) scf=tight nosymm

66_MeNH2-Pyridine_1_y_-30

0    1
    N     -2.02024004      0.00000000     -1.17846755
    C     -2.42256464     -1.17690737     -0.67744048
    H     -1.71921079     -1.99488773     -0.76638490
    C     -3.65394862     -1.36988549     -0.05749171
    H     -3.91788299     -2.34412911      0.32838616
    C     -4.52232655     -0.28921964      0.05705103
    H     -5.48562442     -0.40038419      0.53516531
    C     -4.11916722      0.93841194     -0.45770862
    H     -4.75564916      1.80944933     -0.39405212
    C     -2.86845936      1.03110903     -1.06223746
    H     -2.52751714      1.97419759     -1.47134411
 
 
 
