#p b3lyp 6-311+g(3df,2p) scf=tight nosymm

66_MeNH2-Pyridine_2_y_-30

0    1
    N     -0.02612909      0.00000000      0.00000000
    C      0.37619550     -1.17690737     -0.50102706
    H     -0.32715834     -1.99488773     -0.41208265
    C      1.60757948     -1.36988549     -1.12097584
    H      1.87151386     -2.34412911     -1.50685370
    C      2.47595741     -0.28921964     -1.23551858
    H      3.43925529     -0.40038419     -1.71363286
    C      2.07279809      0.93841194     -0.72075892
    H      2.70928002      1.80944933     -0.78441542
    C      0.82209023      1.03110903     -0.11623008
    H      0.48114800      1.97419759      0.29287657
 
 
 
