#p b3lyp 6-311+g(3df,2p) scf=tight nosymm

nh3p

1    1
    N      0.00000000      0.00000000      0.00000000
    H      0.59186698     -0.59186698      0.59186698
    H     -0.59186698      0.59186698      0.59186698
    H     -0.59186698     -0.59186698     -0.59186698
    H      0.59186698      0.59186698     -0.59186698
 
 
 
