#p b3lyp 6-311+g(3df,2p) scf=tight nosymm

p4

0    1
    C      0.61002014     -0.39591550      0.00000000
    C      1.84275922      0.11826732      0.00000000
    C     -0.61002014      0.39591550      0.00000000
    C     -1.84275922     -0.11826732      0.00000000
    H      0.48339201     -1.47609367      0.00000000
    H      2.01035239      1.19008958      0.00000000
    H      2.72180759     -0.51363111      0.00000000
    H     -0.48339201      1.47609367      0.00000000
    H     -2.01035239     -1.19008958      0.00000000
    H     -2.72180759      0.51363111      0.00000000
 
 
 
