#p b3lyp 6-311+g(3df,2p) scf=tight nosymm

p8

0    1
    C     -4.29773116     -0.20467062      0.00000000
    C     -3.10480487      0.40408640      0.00000000
    C     -1.83334440     -0.28188697      0.00000000
    C     -0.63409636      0.33897210      0.00000000
    C      0.63409636     -0.33897210      0.00000000
    C      1.83334440      0.28188697      0.00000000
    C      3.10480487     -0.40408640      0.00000000
    C      4.29773116      0.20467062      0.00000000
    H     -4.38303207     -1.28599528      0.00000000
    H     -5.22175544      0.35895793      0.00000000
    H     -3.06734165      1.49112066      0.00000000
    H     -1.86326598     -1.36955583      0.00000000
    H     -0.60882788      1.42691665      0.00000000
    H      0.60882788     -1.42691665      0.00000000
    H      1.86326598      1.36955583      0.00000000
    H      3.06734165     -1.49112066      0.00000000
    H      4.38303207      1.28599528      0.00000000
    H      5.22175544     -0.35895793      0.00000000
 
 
 
