#p b3lyp 6-311+g(3df,2p) scf=tight nosymm

sih4

0    1
   Si      0.00000000      0.00000000      0.00000000
    H      0.85492035     -0.85492035      0.85492035
    H     -0.85492035      0.85492035      0.85492035
    H     -0.85492035     -0.85492035     -0.85492035
    H      0.85492035      0.85492035     -0.85492035
 
 
 
