%nproc = 8
%mem   = 6000MB
#p b3lyp/6-31G(2df,p), scf=tight

Opt at the level of B3LYP/6-31G(2df,p), Etot = -5.38195615E+02, ZPE = 0.04263, TE = 0.047111

0        1
C     -0.00114034        0.76622987        0.00000000
C      1.29131494        1.05166564        0.00000000
Cl     -0.62105116       -0.86557619       -0.00000000
H     -0.79357602        1.50343100       -0.00000000
H      2.05605439        0.28469050        0.00000000
H      1.61002218        2.08828618       -0.00000000

