%nproc = 8
%mem   = 6000MB
#p b3lyp/6-31G(2df,p), scf=tight

Opt at the level of B3LYP/6-31G(2df,p), Etot = -2.91892275E+02, ZPE = 0.03112, TE = 0.03513

0        1
Si      0.00000000        0.00000000        0.00000000
H      0.85580921        0.85580921        0.85580921
H     -0.85580921       -0.85580921        0.85580921
H     -0.85580921        0.85580921       -0.85580921
H      0.85580921       -0.85580921       -0.85580921

