%nproc = 8
%mem   = 6000MB
#p b3lyp/6-31G(2df,p), scf=tight

Opt at the level of B3LYP/6-31G(2df,p), Etot = -1.55039896E+02, ZPE = 0.079535, TE = 0.084794

0        1
C      0.00000000        1.16868868       -0.19175549
O      0.00000000        0.00000000        0.59006234
C      0.00000000       -1.16868868       -0.19175549
H      0.00000000        2.02136462        0.49189842
H      0.89149234        1.23067702       -0.83716605
H     -0.89149234        1.23067702       -0.83716605
H      0.00000000       -2.02136462        0.49189842
H     -0.89149234       -1.23067702       -0.83716605
H      0.89149234       -1.23067702       -0.83716605

