%nproc = 8
%mem   = 6000MB
#p b3lyp/6-31G(2df,p), scf=tight

Opt at the level of B3LYP/6-31G(2df,p), Etot = -7.66105063E+01, ZPE = 0.012759, TE = 0.016536

0        2
C     -0.00001710       -0.73000600        0.00000000
C     -0.00001672        0.47395499        0.00000000
H      0.00020882        1.53766200        0.00000000

