%nproc = 8
%mem   = 6000MB
#p b3lyp/6-31G(2df,p), scf=tight

Opt at the level of B3LYP/6-31G(2df,p), Etot = -1.15068112E+02, ZPE = 0.037408, TE = 0.041652

0        2
C      0.00556249        0.02622278        0.00198976
O     -0.00376150       -0.00649151        1.36670404
H      0.90351367       -0.00076184        1.68681117
H      0.87118691       -0.36787098       -0.52381181
H     -0.98211557       -0.06991046       -0.43172816

