%nproc = 8
%mem   = 6000MB
#p b3lyp/6-31G(2df,p), scf=tight

Opt at the level of B3LYP/6-31G(2df,p), Etot = -6.18070139E+02, ZPE = 0.123416, TE = 0.131014

0        1
H     -0.58079897        3.12745742        0.88394438
C     -1.13816557        2.79882910        0.00000000
H     -2.10108444        3.31873577        0.00000000
C     -1.32887969        1.27936014       -0.00000000
H     -0.58079897        3.12745742       -0.88394438
H     -1.91866465        0.98350917        0.87760662
C      0.00463915        0.51766468       -0.00000000
H     -1.91866465        0.98350917       -0.87760662
H      0.59591785        0.79884039        0.87913486
H      0.59591785        0.79884039       -0.87913486
C     -0.20664315       -0.98830529        0.00000000
H     -0.74391034       -1.32600202        0.88801463
Cl      1.37042695       -1.88906931        0.00000000
H     -0.74391034       -1.32600202       -0.88801463

