%nproc = 8
%mem   = 6000MB
#p b3lyp/6-31G(2df,p), scf=tight

Opt at the level of B3LYP/6-31G(2df,p), Etot = -1.54382468E+02, ZPE = 0.063765, TE = 0.068547

0        2
C      1.04380870       -0.60217071        0.00000000
C     -0.00363358        0.51076719        0.00000000
O     -1.30458738        0.10006679        0.00000000
H      0.12876880        1.19216542        0.86662842
H      0.12876880        1.19216542       -0.86662842
H      2.05702321       -0.18633284        0.00000000
H      0.92954223       -1.23365264        0.88588736
H      0.92954223       -1.23365264       -0.88588736

