%nproc = 8
%mem   = 6000MB
#p b3lyp/6-31G(2df,p), scf=tight

Opt at the level of B3LYP/6-31G(2df,p), Etot = -2.13825358E+02, ZPE = 0.14783, TE = 0.155681

0        1
C     -0.54733179       -0.68852252        1.25818401
C     -0.01507109        0.01314762        0.00000000
C     -0.54733179       -0.68852252       -1.25818401
C      1.52728503       -0.01125758        0.00000000
N     -0.55696763        1.38629272        0.00000000
H      1.91993929       -1.03467210        0.00000000
H      1.92276941        0.49873819        0.88598941
H      1.92276941        0.49873819       -0.88598941
H     -1.64045751       -0.66683877       -1.27392077
H     -0.21563263       -1.73089602       -1.29856545
H     -0.18641308       -0.18981189       -2.16556466
H     -0.21563263       -1.73089602        1.29856545
H     -1.64045751       -0.66683877        1.27392077
H     -0.18641308       -0.18981189        2.16556466
H     -0.20258419        1.88845667        0.81074704
H     -0.20258419        1.88845667       -0.81074704

