%nproc = 8
%mem   = 6000MB
#p b3lyp/6-31G(2df,p), scf=tight

Opt at the level of B3LYP/6-31G(2df,p), Etot = -1.15059793E+02, ZPE = 0.036309, TE = 0.040271

0        2
C     -0.01098867       -0.56864047        0.00000428
O     -0.00919005        0.79345417       -0.00000036
H      1.05908961       -0.86640335       -0.00000658
H     -0.45192795       -1.01269056        0.90852412
H     -0.45191895       -1.01269078       -0.90852146

