%nproc = 8
%mem   = 6000MB
#p b3lyp/6-31G(2df,p), scf=tight

Opt at the level of B3LYP/6-31G(2df,p), Etot = -2.70593427E+02, ZPE = 0.120979, TE = 0.127483

0        1
C      0.00000000        0.00000000        0.93100179
O      0.00000000        0.00000000        2.13446221
C      0.00176429        1.24286337        0.03084213
C     -0.00176429       -1.24286337        0.03084213
C      0.29949774       -0.71275404       -1.37926279
C     -0.29949774        0.71275404       -1.37926279
H      1.00912644        1.67781933        0.08275055
H     -1.00912644       -1.67781933        0.08275055
H     -0.69062923        1.99966599        0.40682600
H      0.69062923       -1.99966599        0.40682600
H      1.38365836       -0.65790856       -1.53385410
H     -1.38365836        0.65790856       -1.53385410
H     -0.10926954       -1.34192096       -2.17358229
H      0.10926954        1.34192096       -2.17358229

