%nproc = 8
%mem   = 6000MB
#p b3lyp/6-31G(2df,p), scf=tight

Opt at the level of B3LYP/6-31G(2df,p), Etot = -5.56664853E+02, ZPE = 0.130293, TE = 0.138481

0        1
C      0.35581877       -0.01038086       -0.00000000
S     -1.50654512        0.09304970       -0.00000000
C      0.83786508        1.44773150        0.00000000
C      0.83894685       -0.73488576        1.26222358
C      0.83894685       -0.73488576       -1.26222358
H     -1.74430836       -1.23251118        0.00000000
H      1.93329582        1.47333601        0.00000000
H      0.48714312        1.98367466        0.88701042
H      0.48714312        1.98367466       -0.88701042
H      1.93586860       -0.76189769        1.28344897
H      0.48026918       -1.76858806        1.28981466
H      0.48907315       -0.22986523        2.16606568
H      1.93586860       -0.76189769       -1.28344897
H      0.48026918       -1.76858806       -1.28981466
H      0.48907315       -0.22986523       -2.16606568

