%nproc = 8
%mem   = 6000MB
#p b3lyp/6-31G(2df,p), scf=tight

Opt at the level of B3LYP/6-31G(2df,p), Etot = -5.78753290E+02, ZPE = 0.094836, TE = 0.101161

0        1
C      0.91853022       -0.62466947        0.00000000
C      2.39379650       -0.20436958        0.00000000
C     -0.00111301        0.58744800        0.00000000
H      0.70025550       -1.24042824        0.87895364
H      0.70025550       -1.24042824       -0.87895364
H      3.04598121       -1.08255566        0.00000000
Cl     -1.75084970        0.10472357        0.00000000
H      2.63948839        0.39312115       -0.88470256
H      2.63948839        0.39312115        0.88470256
H      0.14036199        1.20612017        0.88804690
H      0.14036199        1.20612017       -0.88804690

