%nproc = 8
%mem   = 6000MB
#p b3lyp/6-31G(2df,p), scf=tight

Opt at the level of B3LYP/6-31G(2df,p), Etot = -2.71585964E+02, ZPE = 0.127425, TE = 0.134608

0        1
C     -0.00299382        0.91096494        0.00000000
C     -0.00672269        0.19340614        1.19973761
C     -0.00672269        0.19340614       -1.19973761
C     -0.00748038       -1.19893462        1.20267246
C     -0.00748038       -1.19893462       -1.20267246
C     -0.00705877       -1.90135129        0.00000000
C      0.02840830        2.42023009        0.00000000
H      1.05915546        2.79621793        0.00000000
H     -0.46534836        2.83094171       -0.88562035
H     -0.46534836        2.83094171        0.88562035
H     -0.01272430       -1.73538732        2.14619528
H     -0.01272430       -1.73538732       -2.14619528
H     -0.01083213       -2.98625696        0.00000000
H     -0.01110630        0.73328423        2.14248183
H     -0.01110630        0.73328423       -2.14248183

