%nproc = 8
%mem   = 6000MB
#p b3lyp/6-31G(2df,p), scf=tight

Opt at the level of B3LYP/6-31G(2df,p), Etot = -2.30039011E+02, ZPE = 0.069885, TE = 0.074544

0        1
O      0.00000000        0.00000000        1.15625473
C      0.00000000        1.09190361        0.34630249
C      0.00000000       -1.09190361        0.34630249
C     -0.00000000        0.71724926       -0.95864716
C      0.00000000       -0.71724926       -0.95864716
H      0.00000000        2.04498404        0.84877233
H     -0.00000000       -2.04498404        0.84877233
H     -0.00000000        1.37300912       -1.81500952
H      0.00000000       -1.37300912       -1.81500952

