%nproc = 8
%mem   = 6000MB
#p b3lyp/6-31G(2df,p), scf=tight

Opt at the level of B3LYP/6-31G(2df,p), Etot = -1.55989977E+02, ZPE = 0.083902, TE = 0.089861

0        1
C      0.37874368        1.68533318       -0.43975247
C     -0.49176931        0.45379964       -0.41307300
C     -0.17600806       -0.67187872        0.16264774
C      0.14098625       -1.79601492        0.73854864
H      0.60777328        1.97910675       -1.47109168
H      1.32017523        1.51718641        0.08752270
H     -0.13268629        2.53495285        0.02827128
H     -1.45551574        0.52517095       -0.91714112
H      0.66916684       -2.58206776        0.20506252
H     -0.11015187       -1.99641537        1.77692939

