%nproc = 8
%mem   = 6000MB
#p b3lyp/6-31G(2df,p), scf=tight

Opt at the level of B3LYP/6-31G(2df,p), Etot = -2.12600398E+02, ZPE = 0.129399, TE = 0.13529

0        1
H      0.47048423       -0.67816454        2.07338289
H      0.40020889       -2.10890200        0.00000000
C     -0.09809266       -0.46890973       -1.16166859
C     -0.09941192        1.02543861       -0.77817863
C     -0.09941192        1.02543861        0.77817863
C     -0.09809266       -0.46890972        1.16166858
N      0.52756480       -1.10272371        0.00000000
H     -1.13641003       -0.81054331       -1.32994774
H      0.47048422       -0.67816454       -2.07338289
H      0.79772428        1.51863707       -1.16045729
H     -0.96270973        1.54720825       -1.19842966
H     -0.96270974        1.54720824        1.19842966
H      0.79772428        1.51863707        1.16045729
H     -1.13641003       -0.81054331        1.32994774

