%nproc = 8
%mem   = 6000MB
#p b3lyp/6-31G(2df,p), scf=tight

Opt at the level of B3LYP/6-31G(2df,p), Etot = -3.09606209E+02, ZPE = 0.13229, TE = 0.139975

0        1
C      0.67145105        1.56785856        0.36840542
C     -0.66630246        1.57004639        0.36841502
C     -0.67145105       -1.56785856        0.36840542
C      0.66630246       -1.57004639        0.36841502
C     -1.56785835        0.67145088       -0.36840379
C     -1.57004620       -0.66630259       -0.36841343
C      1.56785835       -0.67145088       -0.36840379
C      1.57004620        0.66630259       -0.36841343
H      1.17475015        2.36481826        0.91585509
H     -1.16697151        2.36865962        0.91586764
H     -1.17475015       -2.36481826        0.91585509
H      1.16697151       -2.36865962        0.91586764
H     -2.36481814        1.17474987       -0.91585365
H     -2.36865920       -1.16697160       -0.91586631
H      2.36481814       -1.17474987       -0.91585365
H      2.36865920        1.16697160       -0.91586631

