%nproc = 8
%mem   = 6000MB
#p b3lyp/6-31G(2df,p), scf=tight

Opt at the level of B3LYP/6-31G(2df,p), Etot = -1.85664484E+02, ZPE = 0.016545, TE = 0.021197

0        1
N      0.00000000        0.00000000        1.84592515
C      0.00000000       -0.00000000        0.68788098
C      0.00000000        0.00000000       -0.68788098
N      0.00000000        0.00000000       -1.84592515

