%nproc = 8
%mem   = 6000MB
#p b3lyp/6-31G(2df,p), scf=tight

Opt at the level of B3LYP/6-31G(2df,p), Etot = -3.08898208E+02, ZPE = 0.140814, TE = 0.149599

0        1
H     -1.87724094       -0.05109488       -1.14880826
C     -1.87746389       -0.06387818       -0.05605564
C     -0.45553118       -0.07018326        0.49007028
H     -0.46540812       -0.19564281        1.58374788
H     -2.41736115        0.81124668        0.31432156
H     -2.39817536       -0.96741337        0.26982899
O      0.24004270        1.14673938        0.31633570
O      0.21134282       -1.15393623       -0.10798702
C      0.37121921        1.59446160       -1.02300382
C      1.45739264       -1.45915082        0.49148867
H      1.11750363        2.39242026       -1.01261255
H      1.87608040       -2.30729857       -0.05477932
H     -0.56956394        2.00308975       -1.41608683
H      0.71359037        0.79178350       -1.68646099
H      1.33222399       -1.74175709        1.54778816
H      2.15242482       -0.61299896        0.43893021

