%nproc = 8
%mem   = 6000MB
#p b3lyp/6-31G(2df,p), scf=tight

Opt at the level of B3LYP/6-31G(2df,p), Etot = -7.64260771E+01, ZPE = 0.021378, TE = 0.025158

0        1
O      0.00000000        0.00000000        0.12290952
H      0.00000000        0.75666690       -0.47122526
H      0.00000000       -0.75666690       -0.47122526

