%nproc = 8
%mem   = 6000MB
#p b3lyp/6-31G(2df,p), scf=tight

Opt at the level of B3LYP/6-31G(2df,p), Etot = -4.49216536E+02, ZPE = 0.146875, TE = 0.157237

0        1
C      1.09008981        1.09008981        1.09008981
Si      0.00000000        0.00000000        0.00000000
C     -1.09008981       -1.09008981        1.09008980
C     -1.09008981        1.09008981       -1.09008981
C      1.09008981       -1.09008981       -1.09008981
H      1.73657270        1.73657269        0.48686067
H      1.73657269        0.48686067        1.73657270
H      0.48686067        1.73657270        1.73657269
H     -1.73657269       -1.73657269        0.48686067
H     -1.73657269       -0.48686067        1.73657269
H     -0.48686067       -1.73657269        1.73657269
H     -1.73657269        0.48686067       -1.73657269
H     -0.48686067        1.73657269       -1.73657269
H     -1.73657270        1.73657269       -0.48686067
H      0.48686067       -1.73657269       -1.73657269
H      1.73657269       -1.73657269       -0.48686067
H      1.73657269       -0.48686067       -1.73657269

