%nproc = 8
%mem   = 6000MB
#p b3lyp/6-31G(2df,p), scf=tight

Opt at the level of B3LYP/6-31G(2df,p), Etot = -2.29992446E+02, ZPE = 0.065135, TE = 0.071751

0        1
H      1.94386716        0.27413974        0.87998847
C      1.48791033        0.74084222        0.00000000
H      1.68400992        1.81395654        0.00000002
C     -0.00585061        0.49823659       -0.00000001
H      1.94386716        0.27413977       -0.87998848
O     -0.82581216        1.38940875        0.00000001
C     -0.40997847       -0.90080478       -0.00000003
C     -0.73277576       -2.06041481       -0.00000006
H     -1.03569558       -3.07939102        0.00000007

