%nproc = 8
%mem   = 6000MB
#p b3lyp/6-31G(2df,p), scf=tight

Opt at the level of B3LYP/6-31G(2df,p), Etot = -2.29104693E+02, ZPE = 0.06173, TE = 0.067234

0        1
C     -0.00452178        0.15798926        0.00000000
O      0.16977949        1.34879882        0.00000000
O     -1.24062802       -0.39891860        0.00000000
H     -1.86672708        0.34055758        0.00000000
C      1.06982665       -0.89948609        0.00000000
H      2.04945645       -0.42400317        0.00000000
H      0.96322014       -1.53962390        0.88044970
H      0.96322014       -1.53962390       -0.88044970

