%nproc = 8
%mem   = 6000MB
#p b3lyp/6-31G(2df,p), scf=tight

Opt at the level of B3LYP/6-31G(2df,p), Etot = -2.45026821E+02, ZPE = 0.048448, TE = 0.053776

0        1
C     -1.32275729        0.33851140        0.00000000
O      0.00146251        0.88964244        0.00000000
H     -1.98454775        1.20378688       -0.00000000
H     -1.48876614       -0.27590745        0.88949266
H     -1.48876614       -0.27590745       -0.88949266
N      1.03646692       -0.04476168        0.00000001
O      0.67954389       -1.17326213       -0.00000001

