%nproc = 8
%mem   = 6000MB
#p b3lyp/6-31G(2df,p), scf=tight

Opt at the level of B3LYP/6-31G(2df,p), Etot = -1.18489048E+02, ZPE = 0.087827, TE = 0.093908

0        2
C     -0.00700398        0.53337890        0.00000000
C      0.01936767       -0.19637851        1.29952881
C      0.01936767       -0.19637851       -1.29952881
H     -0.29136086        1.58156708        0.00000000
H      0.25311885        0.46714535        2.13814352
H      0.25311885        0.46714535       -2.13814352
H     -0.95057877       -0.67140270        1.53235712
H      0.75865967       -1.00817562        1.29138527
H     -0.95057877       -0.67140270       -1.53235712
H      0.75865967       -1.00817562       -1.29138527

