%nproc = 8
%mem   = 6000MB
#p b3lyp/6-31G(2df,p), scf=tight

Opt at the level of B3LYP/6-31G(2df,p), Etot = -2.64332350E+02, ZPE = 0.076753, TE = 0.081864

0        1
H      0.00000000        2.06345770        1.25454387
N      0.00000000        0.00000000       -1.40536040
N      0.00000000        0.00000000        1.40536040
C      0.00000000        1.13035702       -0.69684826
C      0.00000000       -1.13035702       -0.69684826
C      0.00000000       -1.13035702        0.69684826
C      0.00000000        1.13035702        0.69684826
H      0.00000000        2.06345770       -1.25454387
H      0.00000000       -2.06345770       -1.25454387
H      0.00000000       -2.06345770        1.25454387

