%nproc = 8
%mem   = 6000MB
#p b3lyp/6-31G(2df,p), scf=tight

Opt at the level of B3LYP/6-31G(2df,p), Etot = -2.10184222E+02, ZPE = 0.082441, TE = 0.087359

0        1
H      0.00000000        0.00000000        2.12343719
N      0.00000000        0.00000000        1.11908275
C      0.00000000        1.12275085        0.33039273
C      0.00000000       -1.12275085        0.33039273
C      0.00000000        0.71156424       -0.98180317
C      0.00000000       -0.71156424       -0.98180317
H      0.00000000        2.10852552        0.76671203
H      0.00000000       -2.10852552        0.76671203
H      0.00000000        1.35869183       -1.84540056
H      0.00000000       -1.35869183       -1.84540056

