%nproc = 8
%mem   = 6000MB
#p b3lyp/6-31G(2df,p), scf=tight

Opt at the level of B3LYP/6-31G(2df,p), Etot = -2.76423300E+02, ZPE = 0.216978, TE = 0.227677

0        1
C      0.00000000        0.00000000        0.49553707
C      0.00000000        1.28187573       -0.34407918
C      0.00000000       -1.28187573       -0.34407918
C     -0.00000000        2.56467629        0.49463070
C      0.00000000       -2.56467629        0.49463070
C     -0.00000000        3.83992721       -0.35295044
C      0.00000000       -3.83992721       -0.35295044
H     -0.87707824        0.00000000        1.15799951
H      0.87707824        0.00000000        1.15799951
H     -0.87698578        1.28260748       -1.00679359
H      0.87698578        1.28260748       -1.00679359
H      0.87698578       -1.28260748       -1.00679359
H     -0.87698578       -1.28260748       -1.00679359
H      0.87666616        2.56389230        1.15608998
H     -0.87666616        2.56389230        1.15608998
H     -0.87666616       -2.56389230        1.15608998
H      0.87666616       -2.56389230        1.15608998
H     -0.88343455        3.88494121       -0.99978817
H      0.88343455        3.88494121       -0.99978817
H      0.88343455       -3.88494121       -0.99978817
H     -0.88343455       -3.88494121       -0.99978817
H      0.00000000        4.73806469        0.27288794
H     -0.00000000       -4.73806469        0.27288794

