%nproc = 8
%mem   = 6000MB
#p b3lyp/6-31G(2df,p), scf=tight

Opt at the level of B3LYP/6-31G(2df,p), Etot = -1.57812298E+02, ZPE = 0.116105, TE = 0.123491

0        2
C      0.00000000       -0.00002271        0.12968907
C      0.00000000        1.48791146       -0.01853487
C      1.28852780       -0.74392479       -0.01890049
C     -1.28852780       -0.74392479       -0.01890049
H      0.00000000        1.80291179       -1.07841749
H     -0.88789399        1.94192261        0.43671051
H      0.88789399        1.94192261        0.43671051
H      1.56131302       -0.90193095       -1.07872091
H      2.12569317       -0.20172595        0.43596397
H      1.23778194       -1.73974069        0.43670258
H     -1.56131302       -0.90193095       -1.07872091
H     -1.23778194       -1.73974069        0.43670258
H     -2.12569317       -0.20172595        0.43596397

