%nproc = 8
%mem   = 6000MB
#p b3lyp/6-31G(2df,p), scf=tight

Opt at the level of B3LYP/6-31G(2df,p), Etot = -4.78027237E+02, ZPE = 0.075466, TE = 0.081318

0        1
C      0.00000000        1.39065239       -0.51434033
S      0.00000000        0.00000000        0.65961195
C      0.00000000       -1.39065239       -0.51434033
H     -0.00000000        2.30713350        0.07936584
H      0.89465851        1.37472767       -1.14208249
H     -0.89465851        1.37472767       -1.14208249
H      0.00000000       -2.30713350        0.07936584
H     -0.89465851       -1.37472767       -1.14208249
H      0.89465851       -1.37472767       -1.14208249

