%nproc = 8
%mem   = 6000MB
#p b3lyp/6-31G(2df,p), scf=tight

Opt at the level of B3LYP/6-31G(2df,p), Etot = -7.91657967E+01, ZPE = 0.059138, TE = 0.064051

0        2
C     -0.00970153       -0.69250479        0.00000000
C     -0.01720603        0.79521235        0.00000000
H      1.01522589       -1.10268650        0.00000000
H     -0.50479381       -1.10362981        0.88681511
H     -0.50479381       -1.10362981       -0.88681511
H      0.05825264        1.35263278        0.92647969
H      0.05825264        1.35263278       -0.92647969

