%nproc = 8
%mem   = 6000MB
#p b3lyp/6-31G(2df,p), scf=tight

Opt at the level of B3LYP/6-31G(2df,p), Etot = -4.38067438E+02, ZPE = 0.035414, TE = 0.03957

0        2
C     -0.00438456        1.11345377       -0.00000308
S     -0.00381561       -0.69178926       -0.00000722
H      1.04864914        1.42300682        0.00001440
H     -0.47516500        1.51420068        0.90010382
H     -0.47518398        1.51418299       -0.90010792

