%nproc = 8
%mem   = 6000MB
#p b3lyp/6-31G(2df,p), scf=tight

Opt at the level of B3LYP/6-31G(2df,p), Etot = -3.62989353E+02, ZPE = 0.134916, TE = 0.143985

0        1
C      0.01035545        0.60896177       -0.44316504
C     -1.35043899        0.57748656        0.25976617
C     -2.18617930       -0.66750548       -0.04791333
C      0.80683631        1.88001106       -0.16402044
N      0.82769739       -0.58711500        0.02824277
O      1.12080046       -1.43226891       -0.80305726
O      1.12734179       -0.62345137        1.21274516
H     -3.15258969       -0.61511624        0.46111404
H     -1.68563721       -1.58124805        0.28666138
H     -2.37671028       -0.76502146       -1.12174617
H      1.77686610        1.85996867       -0.66839680
H      0.97159233        1.99878807        0.90903933
H      0.24794095        2.74401526       -0.53380993
H     -1.88981884        1.47819249       -0.05543457
H     -1.18066647        0.66882183        1.33763178
H     -0.10002299        0.43590280       -1.51514707

