%nproc = 8
%mem   = 6000MB
#p b3lyp/6-31G(2df,p), scf=tight

Opt at the level of B3LYP/6-31G(2df,p), Etot = -2.64338760E+02, ZPE = 0.076937, TE = 0.082061

0        1
C      0.00000000        0.00000000       -1.30684050
C      0.00000000        0.00000000        1.35241368
N      0.00000000        1.19571812       -0.71483518
N      0.00000000       -1.19571812       -0.71483518
C      0.00000000        1.18171814        0.62061256
C      0.00000000       -1.18171814        0.62061256
H      0.00000000        0.00000000       -2.39449732
H      0.00000000        0.00000000        2.43601280
H      0.00000000        2.15005478        1.11641429
H      0.00000000       -2.15005478        1.11641429

