%nproc = 8
%mem   = 6000MB
#p b3lyp/6-31G(2df,p), scf=tight

Opt at the level of B3LYP/6-31G(2df,p), Etot = -5.92343263E+02, ZPE = 0.094266, TE = 0.101009

0        1
H      0.03901317       -2.73804951        0.00000000
S     -1.07700222       -0.55227455        0.00000000
C      0.00106288        0.81470135        0.00000000
H      2.13816239        1.07434641        0.00000000
H      2.39193461       -1.54408756        0.00000000
C      0.23703337       -1.67713123        0.00000000
C      1.43774051       -1.03208405        0.00000000
C      1.29959880        0.38777787        0.00000000
C     -0.52056624        2.21920921        0.00000000
H      0.31582209        2.92378373        0.00000000
H     -1.13540368        2.42971416        0.88219023
H     -1.13540368        2.42971416       -0.88219023

