%nproc = 8
%mem   = 6000MB
#p b3lyp/6-31G(2df,p), scf=tight

Opt at the level of B3LYP/6-31G(2df,p), Etot = -2.32489711E+02, ZPE = 0.112005, TE = 0.119582

0        1
H     -2.11193567        0.62804293       -0.86360194
C     -2.01973405       -0.01901053        0.01233066
H     -2.10819787        0.61876465        0.89542233
C     -0.68321122       -0.75600504        0.00559919
H     -2.85333176       -0.72687461        0.01035610
C      0.52614449        0.17211497        0.00832561
H     -0.59702974       -1.41634704       -0.86882123
H      2.67573082        0.25535398        0.00511191
H      1.99652957       -1.13829719       -0.88314664
H      1.99974453       -1.15087116        0.87603969
H     -0.59357422       -1.42598568        0.87230103
O      0.40889881        1.37604087        0.01560507
C      1.88924632       -0.50014216        0.00126522

