%nproc = 8
%mem   = 6000MB
#p b3lyp/6-31G(2df,p), scf=tight

Opt at the level of B3LYP/6-31G(2df,p), Etot = -6.18076018E+02, ZPE = 0.121995, TE = 0.129547

0        1
Cl      0.00000000       -0.00082456        1.48520894
C      0.00000000       -0.00001614       -0.36999180
C      0.00000000        1.46060351       -0.81581947
C      1.26460594       -0.73017826       -0.81685828
C     -1.26460594       -0.73017826       -0.81685828
H      0.00000000        1.50633719       -1.91146513
H      1.30216757       -0.75477414       -1.91248388
H     -1.30216757       -0.75477414       -1.91248388
H      0.88671071        1.98420223       -0.45044616
H     -0.88671071        1.98420223       -0.45044616
H      1.27562695       -1.75933125       -0.45002828
H      2.16159801       -0.22296959       -0.45359816
H     -2.16159801       -0.22296959       -0.45359816
H     -1.27562695       -1.75933125       -0.45002828

