%nproc = 8
%mem   = 6000MB
#p b3lyp/6-31G(2df,p), scf=tight

Opt at the level of B3LYP/6-31G(2df,p), Etot = -3.81758601E+02, ZPE = 0.098059, TE = 0.107101

0        1
O      0.00000001        0.00000000        0.58488791
C     -0.01511150        1.21094699       -0.10215768
O      0.46019278        1.35692211       -1.18556500
C     -0.65490665        2.26874349        0.75636875
C      0.01511151       -1.21094699       -0.10215768
O     -0.46019279       -1.35692210       -1.18556499
C      0.65490665       -2.26874349        0.75636875
H      0.53835178       -3.24278946        0.28290472
H      0.20488074       -2.27194843        1.75260584
H      1.71840871       -2.04131142        0.88076342
H     -0.53835179        3.24278945        0.28290472
H     -0.20488074        2.27194844        1.75260584
H     -1.71840871        2.04131141        0.88076342

