%nproc = 8
%mem   = 6000MB
#p b3lyp/6-31G(2df,p), scf=tight

Opt at the level of B3LYP/6-31G(2df,p), Etot = -9.54865535E+02, ZPE = 0.134255, TE = 0.144431

0        1
H     -2.41422184        3.08323129        1.38806642
H     -3.15672214        1.55537049        0.88986705
H     -2.64703713        2.73225548       -0.33216866
C     -2.38717071        2.29001896        0.63416982
H     -0.23127857        2.38618898        0.33618285
H     -0.74305945        1.21270392        1.56416587
C     -0.99825577        1.65422374        0.59782394
S     -0.97689992        0.32731026       -0.68293929
S      0.97689992       -0.32731026       -0.68293929
C      0.99825577       -1.65422374        0.59782394
C      2.38717071       -2.29001896        0.63416983
H      0.23127858       -2.38618898        0.33618285
H      0.74305945       -1.21270392        1.56416587
H      2.41422184       -3.08323129        1.38806642
H      3.15672214       -1.55537049        0.88986705
H      2.64703713       -2.73225548       -0.33216866

