%nproc = 8
%mem   = 6000MB
#p b3lyp/6-31G(2df,p), scf=tight

Opt at the level of B3LYP/6-31G(2df,p), Etot = -2.09232406E+02, ZPE = 0.073002, TE = 0.078539

0        1
C     -1.35860253       -0.35172945       -0.00131953
C      0.07837573        0.15285635       -0.00624872
O      0.35373766        1.33540572       -0.01245334
N      1.03696247       -0.82147447        0.00074239
H      2.00341507       -0.53928273        0.00923015
H      0.81774170       -1.80099455        0.01214076
H     -1.44642542       -1.43923911       -0.06412488
H     -1.84630585       -0.00863723        0.91502476
H     -1.88942381        0.09993347       -0.84264058

