%nproc = 8
%mem   = 6000MB
#p b3lyp/6-31G(2df,p), scf=tight

Opt at the level of B3LYP/6-31G(2df,p), Etot = -7.79086937E+01, ZPE = 0.036513, TE = 0.040562

0        2
C      0.04786492       -0.58515125        0.00000000
C      0.04843752        0.72063855        0.00000000
H     -0.87942636       -1.16595260        0.00000000
H      0.96733150       -1.16781510        0.00000000
H     -0.66408357        1.53269940        0.00000000

