%nproc = 8
%mem   = 6000MB
#p b3lyp/6-31G(2df,p), scf=tight

Opt at the level of B3LYP/6-31G(2df,p), Etot = -2.05088842E+02, ZPE = 0.008837, TE = 0.012715

0        2
N      0.00000000       -0.00000003        0.32307993
O      0.00000000        1.10181766       -0.14141847
O      0.00000000       -1.10181762       -0.14141846

