%nproc = 8
%mem   = 6000MB
#p b3lyp/6-31G(2df,p), scf=tight

Opt at the level of B3LYP/6-31G(2df,p), Etot = -2.37104315E+02, ZPE = 0.188073, TE = 0.197437

0        1
C     -0.08172233       -0.18439330        0.00000000
C     -0.33290469        0.66247032        1.26278133
C     -0.33290469        0.66247032       -1.26278133
C     -0.32828645       -0.11829753        2.58123837
C     -0.32828645       -0.11829753       -2.58123837
C      1.32093520       -0.80967147        0.00000000
H     -0.81764199       -1.00397579        0.00000000
H     -1.30307831        1.16466514        1.15570241
H     -1.30307831        1.16466514       -1.15570241
H      0.41742300        1.46441796        1.30975585
H      0.41742300        1.46441796       -1.30975585
H     -0.58341307        0.53486382        3.42191478
H     -0.58341307        0.53486382       -3.42191478
H     -1.06187480       -0.93245509        2.56069379
H     -1.06187480       -0.93245509       -2.56069379
H      0.64972386       -0.55890744        2.79693543
H      0.64972386       -0.55890744       -2.79693543
H      2.09273504       -0.02964798        0.00000000
H      1.48426301       -1.43836840        0.87985352
H      1.48426301       -1.43836840       -0.87985352

