%nproc = 8
%mem   = 6000MB
#p b3lyp/6-31G(2df,p), scf=tight

Opt at the level of B3LYP/6-31G(2df,p), Etot = -2.35899261E+02, ZPE = 0.169787, TE = 0.176474

0        1
C     -1.26904528        0.73296186        0.22973651
C      0.00000000       -1.46599043        0.23015862
C      1.26904528        0.73296186        0.22973651
C      0.00000000        1.46599043       -0.23015862
C     -1.26904528       -0.73296186       -0.22973651
C      1.26904528       -0.73296186       -0.22973651
H     -1.32657642        0.76662433        1.32696712
H     -2.16156412        1.24799308       -0.14375772
H      0.00000000       -1.53358687        1.32731740
H      0.00000000       -2.49620324       -0.14404916
H      1.32657642        0.76662433        1.32696712
H      2.16156412        1.24799308       -0.14375772
H      0.00000000        1.53358687       -1.32731740
H      0.00000000        2.49620324        0.14404916
H     -1.32657642       -0.76662433       -1.32696712
H     -2.16156412       -1.24799308        0.14375772
H      1.32657642       -0.76662433       -1.32696712
H      2.16156412       -1.24799308        0.14375772

