%nproc = 8
%mem   = 6000MB
#p b3lyp/6-31G(2df,p), scf=tight

Opt at the level of B3LYP/6-31G(2df,p), Etot = -6.23819698E+02, ZPE = 0.012249, TE = 0.016725

0        1
S      0.00000000        0.00000714        0.00000000
O      0.00000000        1.43192691       -0.00000000
O      1.24003381       -0.71596652       -0.00000000
O     -1.24003381       -0.71596652       -0.00000000

