%nproc = 8
%mem   = 6000MB
#p b3lyp/6-31G(2df,p), scf=tight

Opt at the level of B3LYP/6-31G(2df,p), Etot = -9.34284883E+01, ZPE = 0.016602, TE = 0.020065

0        1
C      0.00000000        0.00000000       -0.49933024
N      0.00000000        0.00000000        0.65231339
H      0.00000000        0.00000000       -1.56578514

