%nproc = 8
%mem   = 6000MB
#p b3lyp/6-31G(2df,p), scf=tight

Opt at the level of B3LYP/6-31G(2df,p), Etot = -5.94773755E+02, ZPE = 0.142337, TE = 0.14936

0        1
S     -0.74756112       -1.31760733        0.00000000
C      0.81124504        1.52688940        0.00000000
C      0.14174766       -0.51284361        1.38288050
C      0.14174766       -0.51284361       -1.38288050
C      0.13924586        1.01459516        1.28242004
C      0.13924586        1.01459516       -1.28242004
H      1.16792125       -0.89706504        1.41504491
H     -0.36483638       -0.85171312        2.29040623
H      1.16792125       -0.89706504       -1.41504491
H     -0.36483638       -0.85171312       -2.29040623
H     -0.89568663        1.37428276        1.32601476
H      0.65948689        1.42639409        2.15693714
H     -0.89568663        1.37428276       -1.32601476
H      0.65948689        1.42639409       -2.15693714
H      0.80975167        2.62255424        0.00000000
H      1.86709913        1.22032521        0.00000000

