%nproc = 8
%mem   = 6000MB
#p b3lyp/6-31G(2df,p), scf=tight

Opt at the level of B3LYP/6-31G(2df,p), Etot = -4.30741913E+02, ZPE = 0.084062, TE = 0.090908

0        1
F     -0.00000000        2.34085836       -0.97867608
C      0.00000000        1.18647281       -0.30670916
C     -0.00000000       -1.21251417        1.08141924
C      0.00000000        0.00000000       -1.02770994
C     -0.00000000        1.21251417        1.08141924
C      0.00000000        0.00000000        1.76678225
C      0.00000000       -1.18647281       -0.30670916
H      0.00000000        0.00000000       -2.10959545
H      0.00000000        2.16379329        1.59832853
H     -0.00000000        0.00000000        2.85116410
F     -0.00000000       -2.34085836       -0.97867608
H      0.00000000       -2.16379329        1.59832853

