%nproc = 8
%mem   = 6000MB
#p b3lyp/6-31G(2df,p), scf=tight

Opt at the level of B3LYP/6-31G(2df,p), Etot = -7.98386909E+01, ZPE = 0.07454, TE = 0.078969

0        1
C      0.00000000        0.00002306        0.76514081
C      0.00000000       -0.00002306       -0.76514081
H      0.00000000        1.01964744        1.16390417
H     -0.88301600       -0.50981787        1.16387234
H      0.88301599       -0.50981787        1.16387234
H      0.00000000       -1.01964744       -1.16390417
H     -0.88301600        0.50981787       -1.16387234
H      0.88301599        0.50981787       -1.16387234

