%nproc = 8
%mem   = 6000MB
#p b3lyp/6-31G(2df,p), scf=tight

Opt at the level of B3LYP/6-31G(2df,p), Etot = -2.71807391E+02, ZPE = 0.14062, TE = 0.149459

0        1
H      0.21615299        3.44511554       -0.49501131
C      0.13429065        2.54957184        0.12732687
H      0.98466527        2.52372212        0.81317133
C      0.09500938        1.29170017       -0.73688016
H     -0.76932078        2.63281016        0.73668619
H      0.98824485        1.22186573       -1.37354948
H     -0.74946572        1.31704726       -1.43929395
C     -0.00001482        0.00000089        0.06802314
O     -0.00000392       -0.00000035        1.27838806
C     -0.09501730       -1.29169949       -0.73688086
C     -0.13428386       -2.54957250        0.12732495
H      0.74946088       -1.31703409       -1.43929144
H     -0.98825164       -1.22187656       -1.37355291
H     -0.98466228       -2.52373618        0.81316523
H      0.76932591       -2.63279753        0.73668855
H     -0.21612960       -3.44511702       -0.49501421

