%nproc = 8
%mem   = 6000MB
#p b3lyp/6-31G(2df,p), scf=tight

Opt at the level of B3LYP/6-31G(2df,p), Etot = -1.36547290E+03, ZPE = 0.006214, TE = 0.011593

0        1
P      0.78174591        0.78174591        0.78174591
P     -0.78174591       -0.78174591        0.78174591
P      0.78174591       -0.78174591       -0.78174591
P     -0.78174591        0.78174591       -0.78174591

