%nproc = 8
%mem   = 6000MB
#p b3lyp/6-31G(2df,p), scf=tight

Opt at the level of B3LYP/6-31G(2df,p), Etot = -6.75294710E+02, ZPE = 0.029435, TE = 0.037148

0        1
C     -0.00000000       -0.00005898        0.77407015
C     -0.00000000        0.00005898       -0.77407015
F     -0.00000000        1.25124178        1.22220211
F     -1.08361614       -0.62567626        1.22234687
F      1.08361614       -0.62567626        1.22234687
F     -0.00000000       -1.25124178       -1.22220211
F     -1.08361614        0.62567626       -1.22234687
F      1.08361614        0.62567626       -1.22234687

