%nproc = 8
%mem   = 6000MB
#p b3lyp/6-31G(2df,p), scf=tight

Opt at the level of B3LYP/6-31G(2df,p), Etot = -3.31503761E+02, ZPE = 0.09212, TE = 0.098198

0        1
F     -0.00000000        0.00000000        2.27069403
C      0.00000000        0.00000000        0.93228800
C     -0.00000000        1.21419170        0.25979983
C     -0.00000000       -1.21419170        0.25979983
C      0.00000000        1.20552868       -1.13330754
C      0.00000000       -1.20552868       -1.13330754
C     -0.00000000        0.00000000       -1.83224398
H      0.00000000        2.13731587        0.82705507
H      0.00000000       -2.13731587        0.82705507
H     -0.00000000        2.14708086       -1.67218256
H     -0.00000000       -2.14708086       -1.67218256
H      0.00000000        0.00000000       -2.91650665

