%nproc = 8
%mem   = 6000MB
#p b3lyp/6-31G(2df,p), scf=tight

Opt at the level of B3LYP/6-31G(2df,p), Etot = -9.97181743E+02, ZPE = 0.02089, TE = 0.027468

0        1
S      0.00000000        0.00000000        0.00000000
F      0.00000000        0.00000000        1.57537338
F      0.00000000        1.57537338        0.00000000
F      0.00000000        0.00000000       -1.57537338
F     -1.57537338        0.00000000        0.00000000
F      1.57537338        0.00000000        0.00000000
F      0.00000000       -1.57537338        0.00000000

