%nproc = 8
%mem   = 6000MB
#p b3lyp/6-31G(2df,p), scf=tight

Opt at the level of B3LYP/6-31G(2df,p), Etot = -3.37571779E+02, ZPE = 0.012226, TE = 0.016606

0        2
C     -0.00002847       -0.00002469        0.32304371
F      0.00004229        1.25747045       -0.07134018
F      1.08907083       -0.62869447       -0.07133751
F     -1.08908465       -0.62875129       -0.07132702

