%nproc = 8
%mem   = 6000MB
#p b3lyp/6-31G(2df,p), scf=tight

Opt at the level of B3LYP/6-31G(2df,p), Etot = -3.12323134E+02, ZPE = 0.191723, TE = 0.202153

0        1
O     -0.00000000        0.00000000        0.52444395
C     -0.32794710        1.16384530       -0.22960982
C      0.32794710       -1.16384530       -0.22960982
C      0.00627162        2.36600082        0.64809661
C     -0.00627162       -2.36600082        0.64809661
C     -1.80208963        1.14553777       -0.64586608
C      1.80208963       -1.14553777       -0.64586608
H      0.29678597        1.20420765       -1.13584618
H     -0.29678597       -1.20420765       -1.13584618
H     -2.03531046        0.26592687       -1.25367203
H      2.03531046       -0.26592687       -1.25367203
H     -2.05130568        2.03404376       -1.23557215
H      2.05130568       -2.03404376       -1.23557215
H     -2.44310457        1.12636500        0.24140015
H      2.44310457       -1.12636500        0.24140015
H      1.06746848        2.36568161        0.91077901
H     -1.06746848       -2.36568161        0.91077901
H     -0.57397450        2.32699694        1.57572364
H      0.57397450       -2.32699694        1.57572364
H     -0.22812788        3.30282226        0.13333439
H      0.22812788       -3.30282226        0.13333439

