%nproc = 8
%mem   = 6000MB
#p b3lyp/6-31G(2df,p), scf=tight

Opt at the level of B3LYP/6-31G(2df,p), Etot = -2.31576270E+02, ZPE = 0.087164, TE = 0.092485

0        2
C      0.00000000        0.00000000        1.39535481
C      0.00000000        0.00000000       -1.32058197
C      0.00000000        1.22422962        0.77088698
C      0.00000000       -1.22422962        0.77088698
C      0.00000000        1.21172268       -0.63091761
C      0.00000000       -1.21172268       -0.63091761
H      0.00000000        0.00000000       -2.40537348
H      0.00000000        2.15902156        1.32121309
H      0.00000000       -2.15902156        1.32121309
H      0.00000000        2.15048404       -1.17677014
H      0.00000000       -2.15048404       -1.17677014

