%nproc = 8
%mem   = 6000MB
#p b3lyp/6-31G(2df,p), scf=tight

Opt at the level of B3LYP/6-31G(2df,p), Etot = -2.72998804E+02, ZPE = 0.163178, TE = 0.172341

0        1
H     -1.43022672        2.12664391        0.00000000
H     -2.08606626        0.73204666        0.88521103
H     -2.08606626        0.73204666       -0.88521103
H      0.10902917        0.42514734        2.15951535
H      1.64727502        0.35046219        1.27725084
H      0.73576098        1.85868577        1.32343077
O     -0.44653783       -1.03058657        0.00000000
C     -0.13963378        0.37254319        0.00000000
C      0.63712616        0.77034353        1.26556522
C     -1.52063808        1.03650390        0.00000000
C      0.63712616        0.77034353       -1.26556522
H      1.64727502        0.35046219       -1.27725084
H      0.73576098        1.85868577       -1.32343077
H      0.10902917        0.42514734       -2.15951535
C      0.62685211       -1.94160359        0.00000000
H      0.18263923       -2.94083647       -0.00000000
H      1.26494597       -1.85200618        0.89085094
H      1.26494597       -1.85200618       -0.89085094

