%nproc = 8
%mem   = 6000MB
#p b3lyp/6-31G(2df,p), scf=tight

Opt at the level of B3LYP/6-31G(2df,p), Etot = -3.99396568E+02, ZPE = 0.015084, TE = 0.018876

0        1
S      0.00000000        0.00000000        0.10285432
H      0.00000000        0.97083943       -0.82842816
H      0.00000000       -0.97083943       -0.82842816

