%nproc = 8
%mem   = 6000MB
#p b3lyp/6-31G(2df,p), scf=tight

Opt at the level of B3LYP/6-31G(2df,p), Etot = -1.72202601E+03, ZPE = 0.004734, TE = 0.010883

0        1
P     -0.00000403       -0.00000227        0.73304290
Cl      0.00000909        1.84814722       -0.21554981
Cl      1.60037399       -0.92406627       -0.21554989
Cl     -1.60037904       -0.92407968       -0.21554720

