%nproc = 8
%mem   = 6000MB
#p b3lyp/6-31G(2df,p), scf=tight

Opt at the level of B3LYP/6-31G(2df,p), Etot = -1.13860406E+02, ZPE = 0.012987, TE = 0.016788

0        2
C      0.06497452        0.58511154        0.00000000
O      0.06041168       -0.59110638        0.00000000
H     -0.86775720        1.22045384        0.00000000

