%nproc = 8
%mem   = 6000MB
#p b3lyp/6-31G(2df,p), scf=tight

Opt at the level of B3LYP/6-31G(2df,p), Etot = -1.15730346E+02, ZPE = 0.051203, TE = 0.055469

0        1
C     -0.04534212        0.65584586       -0.00000000
O     -0.05133859       -0.75956145       -0.00000000
H     -1.09000613        0.97902598        0.00000000
H      0.86260063       -1.05773815        0.00000000
H      0.44069311        1.07934687        0.89180325
H      0.44069311        1.07934687       -0.89180325

