%nproc = 8
%mem   = 6000MB
#p b3lyp/6-31G(2df,p), scf=tight

Opt at the level of B3LYP/6-31G(2df,p), Etot = -3.91541582E+01, ZPE = 0.017302, TE = 0.021105

0        3
C      0.00000000        0.00000000        0.11159506
H      0.00000000        0.99444857       -0.31217853
H      0.00000000       -0.99444857       -0.31217853

