%nproc = 8
%mem   = 6000MB
#p b3lyp/6-31G(2df,p), scf=tight

Opt at the level of B3LYP/6-31G(2df,p), Etot = -5.35960031E+02, ZPE = 0.013182, TE = 0.017069

0        1
O      0.03984867        1.11789403        0.00000000
H     -0.90425627        1.33187991        0.00000000
Cl      0.03007860       -0.58980394        0.00000000

