%nproc = 8
%mem   = 6000MB
#p b3lyp/6-31G(2df,p), scf=tight

Opt at the level of B3LYP/6-31G(2df,p), Etot = -5.48625887E+02, ZPE = 0.006986, TE = 0.011003

0        1
S      0.00000000        0.00000003        0.36224349
O      0.00000000        1.24467635       -0.36694673
O      0.00000000       -1.24467638       -0.36694675

