%nproc = 8
%mem   = 6000MB
#p b3lyp/6-31G(2df,p), scf=tight

Opt at the level of B3LYP/6-31G(2df,p), Etot = -3.24577267E+02, ZPE = 0.012658, TE = 0.017084

0        1
B      0.00000000       -0.00003556        0.00000000
F      0.00000000        1.30876397        0.00000000
F      1.13350516       -0.65436371        0.00000000
F     -1.13350516       -0.65436371        0.00000000

