%nproc = 8
%mem   = 6000MB
#p b3lyp/6-31G(2df,p), scf=tight

Opt at the level of B3LYP/6-31G(2df,p), Etot = -5.82596167E+02, ZPE = 0.048872, TE = 0.054864

0        1
Si      0.00000000        0.00001249        1.17724634
Si      0.00000000       -0.00001250       -1.17724634
H      0.00000000        1.39167288        1.69660581
H     -1.20523095       -0.69584474        1.69661425
H      1.20523095       -0.69584475        1.69661425
H      0.00000000       -1.39167288       -1.69660581
H     -1.20523095        0.69584475       -1.69661425
H      1.20523095        0.69584475       -1.69661425

