%nproc = 8
%mem   = 6000MB
#p b3lyp/6-31G(2df,p), scf=tight

Opt at the level of B3LYP/6-31G(2df,p), Etot = -3.91351322E+01, ZPE = 0.016562, TE = 0.020345

0        1
C      0.00000000        0.00000000        0.18645980
H      0.00000000        0.85550956       -0.53320340
H      0.00000000       -0.85550956       -0.53320340

