%nproc = 8
%mem   = 6000MB
#p b3lyp/6-31G(2df,p), scf=tight

Opt at the level of B3LYP/6-31G(2df,p), Etot = -1.62324821E+03, ZPE = 0.004797, TE = 0.01106

0        1
Al      0.00000000        0.00012000       -0.00000000
Cl      0.00000000        2.08020482        0.00000000
Cl      1.80124976       -1.04016291        0.00000000
Cl     -1.80124976       -1.04016291        0.00000000

