%nproc = 8
%mem   = 6000MB
#p b3lyp/6-31G(2df,p), scf=tight

Opt at the level of B3LYP/6-31G(2df,p), Etot = -3.13030618E+02, ZPE = 0.014265, TE = 0.018491

0        1
O     -0.00000000        0.00000000        1.31618828
C      0.00000000        0.00000000        0.14140706
F     -0.00000000        1.06059448       -0.63124717
F     -0.00000000       -1.06059448       -0.63124717

