%nproc = 8
%mem   = 6000MB
#p b3lyp/6-31G(2df,p), scf=tight

Opt at the level of B3LYP/6-31G(2df,p), Etot = -5.90097756E+02, ZPE = 0.006567, TE = 0.010867

0        1
Cl     -0.51368046       -0.94176731        0.00000000
N     -0.00814762        0.98265001        0.00000000
O      1.11176308        1.16335230        0.00000000

