%nproc = 8
%mem   = 6000MB
#p b3lyp/6-31G(2df,p), scf=tight

Opt at the level of B3LYP/6-31G(2df,p), Etot = -5.11552350E+02, ZPE = 0.00933, TE = 0.013088

0        1
O      0.00000000        0.00000000       -1.68492172
C      0.00000000        0.00000000       -0.52741082
S      0.00000000        0.00000000        1.03987054

