%nproc = 8
%mem   = 6000MB
#p b3lyp/6-31G(2df,p), scf=tight

Opt at the level of B3LYP/6-31G(2df,p), Etot = -1.87887220E+03, ZPE = 0.009248, TE = 0.015869

0        1
C      0.00000000        0.00000000        0.00000000
Cl      1.03025060        1.03025060        1.03025060
Cl     -1.03025060       -1.03025060        1.03025060
Cl     -1.03025060        1.03025060       -1.03025060
Cl      1.03025060       -1.03025060       -1.03025060

