%nproc = 8
%mem   = 6000MB
#p b3lyp/6-31G(2df,p), scf=tight

Opt at the level of B3LYP/6-31G(2df,p), Etot = -3.98433560E+01, ZPE = 0.029658, TE = 0.033696

0        2
C      0.00000000       -0.00000149        0.00000000
H      0.00000000        1.08133700        0.00000000
H      0.93646996       -0.54066826        0.00000000
H     -0.93646996       -0.54066826        0.00000000

