%nproc = 8
%mem   = 6000MB
#p b3lyp/6-31G(2df,p), scf=tight

Opt at the level of B3LYP/6-31G(2df,p), Etot = -4.37502018E+02, ZPE = 0.017131, TE = 0.021996

0        1
C      0.00000000        0.00000000        0.00000000
F      0.76302471        0.76302471        0.76302471
F     -0.76302471       -0.76302471        0.76302471
F     -0.76302471        0.76302471       -0.76302471
F      0.76302471       -0.76302471       -0.76302471

