%nproc = 8
%mem   = 6000MB
#p b3lyp/6-31G(2df,p), scf=tight

Opt at the level of B3LYP/6-31G(2df,p), Etot = -2.13049869E+03, ZPE = 0.007165, TE = 0.014645

0        1
Si      0.00000000        0.00000000        0.00000000
Cl      1.17876579        1.17876579        1.17876579
Cl     -1.17876579       -1.17876579        1.17876579
Cl      1.17876579       -1.17876579       -1.17876579
Cl     -1.17876579        1.17876579       -1.17876579

