%nproc = 8
%mem   = 6000MB
#p b3lyp/6-31G(2df,p), scf=tight

Opt at the level of B3LYP/6-31G(2df,p), Etot = -7.59496610E+02, ZPE = 0.006965, TE = 0.012231

0        1
Cl     -0.00000000        0.00000000        0.36341863
F      0.00000000        0.00000000       -1.26272071
F      0.00000000        1.71271839        0.28475054
F      0.00000000       -1.71271839        0.28475054

