%nproc = 8
%mem   = 6000MB
#p b3lyp/6-31G(2df,p), scf=tight

Opt at the level of B3LYP/6-31G(2df,p), Etot = -1.91696887E+03, ZPE = 0.015296, TE = 0.02276

0        1
C      0.00000000        0.00000000        0.67173637
C      0.00000000        0.00000000       -0.67173637
Cl      0.00000000        1.45421951        1.59718244
Cl      0.00000000       -1.45421951        1.59718244
Cl      0.00000000       -1.45421951       -1.59718244
Cl      0.00000000        1.45421951       -1.59718244

