%nproc = 8
%mem   = 6000MB
#p b3lyp/6-31G(2df,p), scf=tight

Opt at the level of B3LYP/6-31G(2df,p), Etot = -1.16630104E+02, ZPE = 0.056218, TE = 0.060461

0        1
C      0.00000000        0.00000000        0.85934422
C      0.00000000        0.64526504       -0.50188843
C      0.00000000       -0.64526504       -0.50188843
H     -0.91220004        0.00000000        1.46064055
H      0.91220004        0.00000000        1.46064055
H      0.00000000        1.57649449       -1.04023973
H      0.00000000       -1.57649449       -1.04023973

