%nproc = 8
%mem   = 6000MB
#p b3lyp/6-31G(2df,p), scf=tight

Opt at the level of B3LYP/6-31G(2df,p), Etot = -1.19155657E+02, ZPE = 0.103182, TE = 0.108674

0        1
C      0.00000000        0.00000000        0.58671715
C      0.00000000        1.27622647       -0.25969820
C      0.00000000       -1.27622647       -0.25969820
H     -0.87640648        0.00000000        1.24689692
H      0.87640648        0.00000000        1.24689692
H      0.00000000        2.17415495        0.36644838
H      0.00000000       -2.17415495        0.36644838
H      0.88342676        1.32090938       -0.90667684
H     -0.88342676        1.32090938       -0.90667684
H     -0.88342676       -1.32090938       -0.90667684
H      0.88342676       -1.32090938       -0.90667684

