%nproc = 8
%mem   = 6000MB
#p b3lyp/6-31G(2df,p), scf=tight

Opt at the level of B3LYP/6-31G(2df,p), Etot = -1.57241630E+02, ZPE = 0.107644, TE = 0.113897

0        1
C     -0.00000000        0.00000000        1.45719632
C      0.00000000        0.00000000        0.12479855
H      0.00000000        0.92373004        2.02713579
H      0.00000000       -0.92373004        2.02713579
C      0.00000000        1.27536622       -0.67775842
H      0.00000000        2.15943383       -0.03540405
H      0.87871719        1.32721329       -1.33340262
H     -0.87871719        1.32721329       -1.33340262
C      0.00000000       -1.27536622       -0.67775842
H      0.00000000       -2.15943383       -0.03540405
H     -0.87871719       -1.32721329       -1.33340262
H      0.87871719       -1.32721329       -1.33340262

