%nproc = 8
%mem   = 6000MB
#p b3lyp/6-31G(2df,p), scf=tight

Opt at the level of B3LYP/6-31G(2df,p), Etot = -1.17906023E+02, ZPE = 0.081191, TE = 0.08551

0        1
C      0.00000000        0.87050387        0.00000000
C      0.75377919       -0.43518500        0.00000000
C     -0.75377919       -0.43518500        0.00000000
H     -0.00000000        1.46020890        0.90996403
H      0.00000000        1.46020890       -0.90996403
H      1.26451240       -0.73013792       -0.90994370
H      1.26451240       -0.73013792        0.90994370
H     -1.26451240       -0.73013792        0.90994370
H     -1.26451240       -0.73013792       -0.90994370

