%nproc = 8
%mem   = 6000MB
#p b3lyp/6-31G(2df,p), scf=tight

Opt at the level of B3LYP/6-31G(2df,p), Etot = -1.17918629E+02, ZPE = 0.079561, TE = 0.084582

0        1
C      1.29108089        0.15213173        0.00000000
C      0.00123356        0.47330644        0.00000000
H      1.62098899       -0.88337731        0.00000000
H      2.06972955        0.90750858        0.00000000
H     -0.28039540        1.52596611        0.00000000
C     -1.13663321       -0.50381998        0.00000000
H     -0.77889031       -1.53758131        0.00000000
H     -1.77857454       -0.36436864        0.87878964
H     -1.77857454       -0.36436864       -0.87878964

