%nproc = 8
%mem   = 6000MB
#p b3lyp/6-31G(2df,p), scf=tight

Opt at the level of B3LYP/6-31G(2df,p), Etot = -1.55960705E+02, ZPE = 0.086268, TE = 0.090957

0        1
C      0.00000000        1.13530224        0.31217690
C      0.00000000       -1.13530224        0.31217690
C      0.74319011        0.00000000       -0.32377485
C     -0.74319011        0.00000000       -0.32377485
H      0.00000000        1.23676911        1.39984814
H      0.00000000        2.08357320       -0.22079841
H      0.00000000       -1.23676911        1.39984814
H      0.00000000       -2.08357320       -0.22079841
H      1.44064507        0.00000000       -1.14569778
H     -1.44064507        0.00000000       -1.14569778

