%nproc = 8
%mem   = 6000MB
#p b3lyp/6-31G(2df,p), scf=tight

Opt at the level of B3LYP/6-31G(2df,p), Etot = -1.55976850E+02, ZPE = 0.085113, TE = 0.09031

0        1
C      0.00000000       -0.00000000        0.31717023
C      0.00000000        0.76947855       -0.93038110
C      0.00000000       -0.76947855       -0.93038109
C     -0.00000000        0.00000000        1.63339265
H      0.91150765        1.27704587       -1.23543626
H     -0.91150765        1.27704587       -1.23543626
H     -0.91150765       -1.27704587       -1.23543626
H      0.91150765       -1.27704587       -1.23543626
H     -0.00000000        0.92525770        2.20177567
H      0.00000000       -0.92525770        2.20177567

