%nproc = 8
%mem   = 6000MB
#p b3lyp/6-31G(2df,p), scf=tight

Opt at the level of B3LYP/6-31G(2df,p), Etot = -9.59706280E+02, ZPE = 0.029251, TE = 0.033781

0        1
C      0.00001111        0.00000000        0.76953479
Cl     -0.00000876        1.48873227       -0.21740872
Cl     -0.00000876       -1.48873227       -0.21740872
H     -0.90144735        0.00000000        1.37539506
H      0.90145376        0.00000000        1.37541859

