%nproc = 8
%mem   = 6000MB
#p b3lyp/6-31G(2df,p), scf=tight

Opt at the level of B3LYP/6-31G(2df,p), Etot = -2.38989131E+02, ZPE = 0.032793, TE = 0.036854

0        1
C     -0.00001231        0.00000000        0.49416771
F      0.00000967        1.09996530       -0.29055838
F      0.00000967       -1.09996530       -0.29055838
H     -0.90921048        0.00000000        1.10876224
H      0.90920345        0.00000000        1.10874082

