%nproc = 8
%mem   = 6000MB
#p b3lyp/6-31G(2df,p), scf=tight

Opt at the level of B3LYP/6-31G(2df,p), Etot = -3.38246693E+02, ZPE = 0.025408, TE = 0.029806

0        1
C     -0.00001357        0.00000669        0.33550756
H     -0.00011801       -0.00004402        1.43084241
F      0.00013785        1.25069785       -0.12697774
F      1.08319069       -0.62524887       -0.12701253
F     -1.08319696       -0.62541166       -0.12683670

