%nproc = 8
%mem   = 6000MB
#p b3lyp/6-31G(2df,p), scf=tight

Opt at the level of B3LYP/6-31G(2df,p), Etot = -2.32264749E+02, ZPE = 0.100166, TE = 0.10551

0        1
C      0.00000000        1.39350009        0.00000000
C      1.20674540        0.69673610        0.00000000
C      1.20674540       -0.69673610        0.00000000
C      0.00000000       -1.39350009        0.00000000
C     -1.20674540       -0.69673610        0.00000000
C     -1.20674540        0.69673610        0.00000000
H      0.00000000        2.47867049        0.00000000
H      2.14653255        1.23932106        0.00000000
H      2.14653255       -1.23932106        0.00000000
H      0.00000000       -2.47867049        0.00000000
H     -2.14653255       -1.23932106        0.00000000
H     -2.14653255        1.23932106        0.00000000

