%nproc=8
%chk=W40-17.chk
#p b3lyp/6-311+G(d,p) opt freq

Si2H6

0 1
Si -0.0003313210  0.0000000000 -1.1708843053
H  -1.3904265497  0.0000000000 -1.6847319638
H   0.6949809430  1.2040454768 -1.6838904847
H   0.6949809430 -1.2040454768 -1.6838904847
Si  0.0003313210  0.0000000000  1.1708843053
H   1.3904265497  0.0000000000  1.6847319638
H  -0.6949809430  1.2040454768  1.6838904847
H  -0.6949809430 -1.2040454768  1.6838904847 

