%nproc=8
%chk=W44-10.chk
#p b3lyp/6-311+G(d,p) opt freq

C2H2

0 1
C  0.0000 0.0000 -0.60325
C  0.0000 0.0000  0.60325
H  0.0000 0.0000 -1.66665
H  0.0000 0.0000  1.66665




C
C 1 RCC
X 1 ONE 2 PI2
H 1 RCH 3 PI2 2 PI
X 2 ONE 1 PI2 4 PI
H 2 RCH 5 PI2 1 PI

RCC=1.2065
RCH=1.0634
PI2=90.0
PI=180.0
ONE=1.0

