%nproc=8
%mem=1200MB
#p B3LYP/6-311+g(d,p) scf=tight

 1 adenine_thymine_wc c1 -16.37
Bond(N1-H26)=equaliblium distance 1.81885

0 1
N         0.9350155   -0.0279801   -0.3788916
C         1.6739638   -0.0357766   0.7424316
C         3.0747955   -0.009448   0.5994562
C         3.5646109   0.0195446   -0.7059872
N         2.853151   0.0258031   -1.8409596
C         1.549076   0.0012569   -1.5808009
N         4.0885824   -0.0054429   1.5289786
C         5.1829921   0.0253971   0.7872176
N         4.9294871   0.0412404   -0.5567274
N         1.0716177   -0.0765366   1.939139
H         0.8794435   0.005026   -2.4315709
H         6.1882591   0.0375542   1.1738824
H         5.6035368   0.0648755   -1.3036811
H         0.0586915   -0.0423765   2.0039181
H         1.6443796   -0.0347395   2.7619159
N         -3.9211729   -0.0009646   -1.5163659
C         -4.6136833   0.0169051   -0.333652
C         -3.9917387   0.0219348   0.8663338
C         -2.5361367   0.0074651   0.8766724
N         -1.9256484   -0.0110593   -0.3638948 
C         -2.5395897   -0.0149474   -1.5962357
C         -4.7106131   0.0413373   2.1738637
O         -1.867473   0.0112093   1.9120833
O         -1.9416783   -0.0291878   -2.6573783
H         -4.4017172   -0.0036078   -2.4004924
H         -0.8838255   -0.0216168   -0.3784269
H         -5.690922   0.0269347   -0.4227183
H         -4.4439282   -0.8302573   2.7695655
H         -4.4267056   0.9186178   2.7530256
H         -5.7883971   0.050553   2.024728



