%nproc=8
%mem=1200MB
#p B3LYP/6-311+g(d,p) scf=tight

 1 adenine_thymine_wc c1 -16.37
fraction adenine

0 1
N         0.9350155   -0.0279801   -0.3788916
C         1.6739638   -0.0357766   0.7424316
C         3.0747955   -0.009448   0.5994562
C         3.5646109   0.0195446   -0.7059872
N         2.853151   0.0258031   -1.8409596
C         1.549076   0.0012569   -1.5808009
N         4.0885824   -0.0054429   1.5289786
C         5.1829921   0.0253971   0.7872176
N         4.9294871   0.0412404   -0.5567274
N         1.0716177   -0.0765366   1.939139
H         0.8794435   0.005026   -2.4315709
H         6.1882591   0.0375542   1.1738824
H         5.6035368   0.0648755   -1.3036811
H         0.0586915   -0.0423765   2.0039181
H         1.6443796   -0.0347395   2.7619159



