#p b3lyp 6-311+g(3df,2p) scf=tight nosymm

carbooxo1

0    1
    O     -1.74664561      3.02527895      0.00000000
    C     -1.14124133      1.97668798      0.00000000
    C     -1.68142129      0.61294845      0.00000000
    C     -1.68142129     -0.61294845      0.00000000
    C     -1.14124133     -1.97668798      0.00000000
    O     -1.74664561     -3.02527895      0.00000000
    C      0.30988172     -1.76262777      0.00000000
    C      1.37153957     -1.14967933      0.00000000
    C      2.28248267      0.00000000      0.00000000
    O      3.49329123      0.00000000      0.00000000
    C      1.37153957      1.14967933      0.00000000
    C      0.30988172      1.76262777      0.00000000
 
 
 
