#p b3lyp 6-311+g(3df,2p) scf=tight nosymm

ch2n2

0    1
    N      0.00000000      0.00000000     -1.88494056
    N      0.00000000      0.00000000     -0.75100018
    C      0.00000000      0.00000000      0.54118398
    H     -0.95085176      0.00000000      1.04737838
    H      0.95085176      0.00000000      1.04737838
 
 
 
