#p b3lyp 6-311+g(3df,2p) scf=tight nosymm

heptahexaene

0    1
    C      0.00000000      0.00000000      3.85751879
    C      0.00000000      0.00000000      2.54712080
    C      0.00000000      0.00000000      1.27693874
    C      0.00000000      0.00000000      0.00000000
    C      0.00000000      0.00000000     -1.27693874
    C      0.00000000      0.00000000     -2.54712080
    C      0.00000000      0.00000000     -3.85751879
    H     -0.65505627      0.65505627      4.42221803
    H      0.65505627     -0.65505627      4.42221803
    H     -0.65505627     -0.65505627     -4.42221803
    H      0.65505627      0.65505627     -4.42221803
 
 
 
