#p b3lyp 6-311+g(3df,2p) scf=tight nosymm

ISO_E36

0    1
    C     -0.05645010      1.16537555      0.00000000
    N     -1.25121219      0.59328064      0.00000000
    C     -1.30315242     -0.74469098      0.00000000
    C     -0.17533622     -1.54979108      0.00000000
    C      1.07417525     -0.92604283      0.00000000
    C      1.14872438      0.45492733      0.00000000
    O     -0.01235223      2.51866885      0.00000000
    H     -2.29768239     -1.17820644      0.00000000
    H     -0.26884859     -2.62749447      0.00000000
    H      1.98261742     -1.51653070      0.00000000
    H      2.09093126      0.98548119      0.00000000
    H     -0.93141415      2.82502294      0.00000000
 
 
 
