#p b3lyp 6-311+g(3df,2p) scf=tight nosymm

ISO_E35

0    1
    C     -1.19345204     -0.68903986     -0.35239441
    C     -0.75309721     -0.43480088     -1.78750371
    C      0.00000000      0.86960176     -1.78750371
    C      0.00000000      1.37807971     -0.35239441
    C     -1.19345204      0.68903986      0.35239441
    C      0.00000000     -1.37807971      0.35239441
    C      1.19345204     -0.68903986     -0.35239441
    C      0.75309721     -0.43480088     -1.78750371
    C      0.00000000     -0.86960176      1.78750371
    C     -0.75309721      0.43480088      1.78750371
    C      1.19345204      0.68903986      0.35239441
    C      0.75309721      0.43480088      1.78750371
    H     -2.13422505     -1.23219541     -0.25018434
    H     -1.32677173     -0.76601202     -2.64401233
    H      0.00000000      1.53202403     -2.64401233
    H      0.00000000      2.46439081     -0.25018434
    H     -2.13422505      1.23219541      0.25018434
    H      0.00000000     -2.46439081      0.25018434
    H      2.13422505     -1.23219541     -0.25018434
    H      1.32677173     -0.76601202     -2.64401233
    H      0.00000000     -1.53202403      2.64401233
    H     -1.32677173      0.76601202      2.64401233
    H      2.13422505      1.23219541      0.25018434
    H      1.32677173      0.76601202      2.64401233
 
 
 
