#p b3lyp 6-311+g(3df,2p) scf=tight nosymm

s8

0    1
    S     -2.16708553     -0.89763622     -0.50267262
    S     -2.16708553      0.89763622      0.50267262
    S     -0.89763622     -2.16708553      0.50267262
    S      0.89763622     -2.16708553     -0.50267262
    S      2.16708553     -0.89763622      0.50267262
    S      2.16708553      0.89763622     -0.50267262
    S      0.89763622      2.16708553      0.50267262
    S     -0.89763622      2.16708553     -0.50267262
 
 
 
