#p b3lyp 6-311+g(3df,2p) scf=tight nosymm

tmethen

0    1
    C      0.00000000      0.00000000     -0.67413604
    C      0.00000000      0.00000000      0.67413604
    C      1.25072413     -0.02482231     -1.52978376
    C     -1.25072413      0.02482231     -1.52978376
    C      1.25072413      0.02482231      1.52978376
    C     -1.25072413     -0.02482231      1.52978376
    H      2.17050186     -0.19935915     -0.97230022
    H      1.35617444      0.91899811     -2.08212357
    H      1.16375117     -0.81637338     -2.28567611
    H     -2.17050186      0.19935915     -0.97230022
    H     -1.16375117      0.81637338     -2.28567611
    H     -1.35617444     -0.91899811     -2.08212357
    H      2.17050186      0.19935915      0.97230022
    H      1.35617444     -0.91899811      2.08212357
    H      1.16375117      0.81637338      2.28567611
    H     -2.17050186     -0.19935915      0.97230022
    H     -1.16375117     -0.81637338      2.28567611
    H     -1.35617444      0.91899811      2.08212357
 
 
 
