#p b3lyp 6-311+g(3df,2p) scf=tight nosymm

antdimer

0    1
    C     -1.39370882     -2.33772834      1.81573252
    C     -0.69752091     -3.45600893      2.27580472
    C      0.69752091     -3.45600893      2.27580472
    C      1.39370882     -2.33772834      1.81573252
    C      0.70122866     -1.22202506      1.34910904
    C     -0.70122866     -1.22202506      1.34910904
    C      1.38857626      0.00000000      0.80473269
    C     -1.38857626      0.00000000      0.80473269
    C     -0.70122866      1.22202506      1.34910904
    C      0.70122866      1.22202506      1.34910904
    C     -1.39370882      2.33772834      1.81573252
    C      1.39370882      2.33772834      1.81573252
    C     -0.69752091      3.45600893      2.27580472
    C      0.69752091      3.45600893      2.27580472
    C     -1.39370882      2.33772834     -1.81573252
    C     -0.69752091      3.45600893     -2.27580472
    C      0.69752091      3.45600893     -2.27580472
    C      1.39370882      2.33772834     -1.81573252
    C      0.70122866      1.22202506     -1.34910904
    C     -0.70122866      1.22202506     -1.34910904
    C      1.38857626      0.00000000     -0.80473269
    C     -1.38857626      0.00000000     -0.80473269
    C     -0.70122866     -1.22202506     -1.34910904
    C      0.70122866     -1.22202506     -1.34910904
    C     -1.39370882     -2.33772834     -1.81573252
    C      1.39370882     -2.33772834     -1.81573252
    C     -0.69752091     -3.45600893     -2.27580472
    C      0.69752091     -3.45600893     -2.27580472
    H     -2.47672265     -2.33198374      1.81707475
    H     -1.23953107     -4.31875279      2.63685646
    H      1.23953107     -4.31875279      2.63685646
    H      2.47672265     -2.33198374      1.81707475
    H      2.43320814      0.00000000      1.11849804
    H     -2.43320814      0.00000000      1.11849804
    H     -2.47672265      2.33198374      1.81707475
    H      2.47672265      2.33198374      1.81707475
    H     -1.23953107      4.31875279      2.63685646
    H      1.23953107      4.31875279      2.63685646
    H     -2.47672265      2.33198374     -1.81707475
    H     -1.23953107      4.31875279     -2.63685646
    H      1.23953107      4.31875279     -2.63685646
    H      2.47672265      2.33198374     -1.81707475
    H      2.43320814      0.00000000     -1.11849804
    H     -2.43320814      0.00000000     -1.11849804
    H     -2.47672265     -2.33198374     -1.81707475
    H      2.47672265     -2.33198374     -1.81707475
    H     -1.23953107     -4.31875279     -2.63685646
    H      1.23953107     -4.31875279     -2.63685646
 
 
 
