#p b3lyp 6-311+g(3df,2p) scf=tight nosymm

F22f

0    1
    C      1.87744906      0.42018417      2.75714382
    C      1.59869435     -0.36767244      4.04948748
    C      1.53839830      0.52581858      5.31094831
    C      0.76830576     -0.10541694      6.49895042
    C     -0.76830576      0.10541694      6.49895042
    C     -1.53839830     -0.52581858      5.31094831
    C     -1.59869435      0.36767244      4.04948748
    C     -1.87744906     -0.42018417      2.75714382
    C     -1.73605114      0.43850970      1.48857986
    C     -1.88989199     -0.37168494      0.19049550
    C     -1.70850085      0.47862678     -1.07822984
    C     -1.86142611     -0.33435487     -2.37476810
    C     -1.69218272      0.51417873     -3.64630433
    C     -1.85792781     -0.29963432     -4.94185471
    C     -1.70413056      0.56181323     -6.20907684
    C      1.73605114     -0.43850970      1.48857986
    C      1.88989199      0.37168494      0.19049550
    C      1.70850085     -0.47862678     -1.07822984
    C      1.86142611      0.33435487     -2.37476810
    C      1.69218272     -0.51417873     -3.64630433
    C      1.85792781      0.29963432     -4.94185471
    C      1.70413056     -0.56181323     -6.20907684
    H      2.88276175      0.87175103      2.79495022
    H      1.16189478      1.25731946      2.69605313
    H      0.64961166     -0.90189133      3.92512890
    H      2.36925017     -1.14306274      4.18898516
    H      1.06840699      1.48921028      5.05441003
    H      2.56745033      0.76209538      5.62375927
    H      0.97899234     -1.18808383      6.52914834
    H      1.15744012      0.31418107      7.43977501
    H     -0.97899234      1.18808383      6.52914834
    H     -1.15744012     -0.31418107      7.43977501
    H     -1.06840699     -1.48921028      5.05441003
    H     -2.56745033     -0.76209538      5.62375927
    H     -0.64961166      0.90189133      3.92512890
    H     -2.36925017      1.14306274      4.18898516
    H     -1.16189478     -1.25731946      2.69605313
    H     -2.88276175     -0.87175103      2.79495022
    H     -0.74398102      0.91663344      1.49471207
    H     -2.47941487      1.25282489      1.50508155
    H     -1.14666709     -1.18638177      0.18749527
    H     -2.88230570     -0.85250109      0.17061452
    H     -0.71195467      0.94574077     -1.05942159
    H     -2.44340055      1.30093544     -1.07471509
    H     -1.11789477     -1.14814526     -2.37995277
    H     -2.85343253     -0.81643541     -2.38779091
    H     -0.69651445      0.98310891     -3.63913231
    H     -2.42832575      1.33558364     -3.63599738
    H     -1.11186544     -1.10993647     -4.95191083
    H     -2.84789586     -0.78412579     -4.93803214
    H     -0.70935141      1.02834429     -6.24109045
    H     -1.82566682     -0.03859379     -7.12257414
    H     -2.45685711      1.36491452     -6.22486742
    H      0.74398102     -0.91663344      1.49471207
    H      2.47941487     -1.25282489      1.50508155
    H      1.14666709      1.18638177      0.18749527
    H      2.88230570      0.85250109      0.17061452
    H      0.71195467     -0.94574077     -1.05942159
    H      2.44340055     -1.30093544     -1.07471509
    H      1.11789477      1.14814526     -2.37995277
    H      2.85343253      0.81643541     -2.38779091
    H      0.69651445     -0.98310891     -3.63913231
    H      2.42832575     -1.33558364     -3.63599738
    H      1.11186544      1.10993647     -4.95191083
    H      2.84789586      0.78412579     -4.93803214
    H      0.70935141     -1.02834429     -6.24109045
    H      1.82566682      0.03859379     -7.12257414
    H      2.45685711     -1.36491452     -6.22486742
 
 
 
