#p b3lyp/6-311+G(3df.2p) scf=tight                                                                                      

CH3-CH3 equlibirum, Bond[C-C]=1.536 A

0 1
C     0.0000     0.0000     1.8680
H    -1.0192     0.0000     2.2573
H     0.5096     0.8826     2.2573
H     0.5096    -0.8826     2.2573
C     0.0000     0.0000    -1.8680
H     1.0192     0.0000    -2.2573
H    -0.5096    -0.8826    -2.2573
H    -0.5096     0.8826    -2.2573 

