#p b3lyp/6-311+G(3df.2p) scf=tight                                                                                      

CH3-CH3 equlibirum, Bond[C-C]=1.536 A

0 2
C     0.0000     0.0000     0.7680
H    -1.0192     0.0000     1.1573
H     0.5096     0.8826     1.1573
H     0.5096    -0.8826     1.1573

