#p  BLYP/6-311+g(3df,2p) scf=tight iop(3/76=0350006500,3/78=0640006400)
extraoverlay

8/10=90/1;9/16=-3/6;

1 ch5.in

0 2
 C
 H1,  C,  R1
 H2,  C,  R2,  H1,  A1
 H3,  C,  R2,  H1,  A1,    H2,  120.0
 H4,  C,  R2,  H1,  A1,    H2, -120.0
 H5,  H1, R3,  C,   180.0, H2,  0.0 

R1=1.3989833    
R2=1.0848813    
A1=103.1143477  
R3=0.8953954    



--link1--
#p  BLYP/6-311+g(3df,2p) scf=tight iop(3/76=0350006500,3/78=0640006400)
extraoverlay

8/10=90/1;9/16=-1/6;

2 H2+CH3

0 2
 C
 H1,  C,  R1
 H2,  C,  R2,  H1,  A1
 H3,  C,  R2,  H1,  A1,    H2,  120.0
 H4,  C,  R2,  H1,  A1,    H2, -120.0
 H5,  H1, R3,  C,   180.0, H2,  0.0 

R1=   1.4073336
R2=   1.0847559
A1= 102.9548742
R3=   0.8902933




--link1--
#p  BLYP/6-311+g(3df,2p) scf=tight iop(3/76=0350006500,3/78=0640006400)
extraoverlay

8/10=90/1;9/16=-1/6;

3 H2+CH3

0 2
 C
 H1,  C,  R1
 H2,  C,  R2,  H1,  A1
 H3,  C,  R2,  H1,  A1,    H2,  120.0
 H4,  C,  R2,  H1,  A1,    H2, -120.0
 H5,  H1, R3,  C,   180.0, H2,  0.0

R1=   1.4741336
R2=   1.0837706
A1= 101.6831861
R3=   0.8507423




--link1--
#p  BLYP/6-311+g(3df,2p) scf=tight iop(3/76=0350006500,3/78=0640006400)
extraoverlay

8/10=90/1;9/16=-1/6;

4 H2+CH3

0 2
 C
 H1,  C,  R1
 H2,  C,  R2,  H1,  A1
 H3,  C,  R2,  H1,  A1,    H2,  120.0
 H4,  C,  R2,  H1,  A1,    H2, -120.0
 H5,  H1, R3,  C,   180.0, H2,  0.0

R1=   1.5180403
R2=   1.0831767
A1= 100.8508808
R3=   0.8333541



--link1--
#p  BLYP/6-311+g(3df,2p) scf=tight iop(3/76=0350006500,3/78=0640006400)
extraoverlay

8/10=90/1;9/16=-1/6;

5 H2+CH3

0 2
 C
 H1,  C,  R1
 H2,  C,  R2,  H1,  A1
 H3,  C,  R2,  H1,  A1,    H2,  120.0
 H4,  C,  R2,  H1,  A1,    H2, -120.0
 H5,  H1, R3,  C,   180.0, H2,  0.0

R1=   1.5723433
R2=   1.0825005
A1=  99.8460838
R3=   0.8143643



--link1--
#p  BLYP/6-311+g(3df,2p) scf=tight iop(3/76=0350006500,3/78=0640006400)
extraoverlay

8/10=90/1;9/16=-1/6;

6 H2+CH3

0 2
 C
 H1,  C,  R1
 H2,  C,  R2,  H1,  A1
 H3,  C,  R2,  H1,  A1,    H2,  120.0
 H4,  C,  R2,  H1,  A1,    H2, -120.0
 H5,  H1, R3,  C,   180.0, H2,  0.0

R1=   1.6332443
R2=   1.0818002
A1=  98.7331724
R3=   0.7967350



--link1--
#p  BLYP/6-311+g(3df,2p) scf=tight iop(3/76=0350006500,3/78=0640006400)
extraoverlay

8/10=90/1;9/16=-1/6;

7 H2+CH3

0 2
 C
 H1,  C,  R1
 H2,  C,  R2,  H1,  A1
 H3,  C,  R2,  H1,  A1,    H2,  120.0
 H4,  C,  R2,  H1,  A1,    H2, -120.0
 H5,  H1, R3,  C,   180.0, H2,  0.0

R1=  1.6930983
R2=  1.0812074
A1= 97.6718890
R3=  0.7841560



--link1--
#p  BLYP/6-311+g(3df,2p) scf=tight iop(3/76=0350006500,3/78=0640006400)
extraoverlay

8/10=90/1;9/16=-1/6;

8 H2+CH3

0 2
 C
 H1,  C,  R1
 H2,  C,  R2,  H1,  A1
 H3,  C,  R2,  H1,  A1,    H2,  120.0
 H4,  C,  R2,  H1,  A1,    H2, -120.0
 H5,  H1, R3,  C,   180.0, H2,  0.0

R1= 1.7544777
R2= 1.0807074
A1=96.6423642
R3= 0.7745274



--link1--
#p  BLYP/6-311+g(3df,2p) scf=tight iop(3/76=0350006500,3/78=0640006400)
extraoverlay

8/10=90/1;9/16=-1/6;

9 H2+CH3

0 2
 C
 H1,  C,  R1
 H2,  C,  R2,  H1,  A1
 H3,  C,  R2,  H1,  A1,    H2,  120.0
 H4,  C,  R2,  H1,  A1,    H2, -120.0
 H5,  H1, R3,  C,   180.0, H2,  0.0

R1=  1.8191799
R2=  1.0802928
A1= 95.6456313
R3=  0.7672764



--link1--
#p  BLYP/6-311+g(3df,2p) scf=tight iop(3/76=0350006500,3/78=0640006400)
extraoverlay

8/10=90/1;9/16=-1/6;

10 H2+CH3

0 2
 C
 H1,  C,  R1
 H2,  C,  R2,  H1,  A1
 H3,  C,  R2,  H1,  A1,    H2,  120.0
 H4,  C,  R2,  H1,  A1,    H2, -120.0
 H5,  H1, R3,  C,   180.0, H2,  0.0

R1=  1.8850874
R2=  1.0799424
A1= 94.6636630
R3=  0.7614419



--link1--
#p  BLYP/6-311+g(3df,2p) scf=tight iop(3/76=0350006500,3/78=0640006400)
extraoverlay

8/10=90/1;9/16=-1/6;

11 H2+CH3

0 2
 C
 H1,  C,  R1
 H2,  C,  R2,  H1,  A1
 H3,  C,  R2,  H1,  A1,    H2,  120.0
 H4,  C,  R2,  H1,  A1,    H2, -120.0
 H5,  H1, R3,  C,   180.0, H2,  0.0

R1=   1.9472166
R2=   1.0797100
A1=  93.8223142
R3=   0.7575082



--link1--
#p  BLYP/6-311+g(3df,2p) scf=tight iop(3/76=0350006500,3/78=0640006400)
extraoverlay

8/10=90/1;9/16=-1/6;

12 H2+CH3

0 2
 C
 H1,  C,  R1
 H2,  C,  R2,  H1,  A1
 H3,  C,  R2,  H1,  A1,    H2,  120.0
 H4,  C,  R2,  H1,  A1,    H2, -120.0
 H5,  H1, R3,  C,   180.0, H2,  0.0

R1=  2.0093571
R2=  1.0795433
A1= 93.0653777
R3=  0.7544556



--link1--
#p  BLYP/6-311+g(3df,2p) scf=tight iop(3/76=0350006500,3/78=0640006400)
extraoverlay

8/10=90/1;9/16=-1/6;

13 H2+CH3

0 2
 C
 H1,  C,  R1
 H2,  C,  R2,  H1,  A1
 H3,  C,  R2,  H1,  A1,    H2,  120.0
 H4,  C,  R2,  H1,  A1,    H2, -120.0
 H5,  H1, R3,  C,   180.0, H2,  0.0

R1=  2.0704812
R2=  1.0794388
A1= 92.4185564
R3=  0.7521638



--link1--
#p  BLYP/6-311+g(3df,2p) scf=tight iop(3/76=0350006500,3/78=0640006400)
extraoverlay

8/10=90/1;9/16=-1/6;

14 H2+CH3

0 2
 C
 H1,  C,  R1
 H2,  C,  R2,  H1,  A1
 H3,  C,  R2,  H1,  A1,    H2,  120.0
 H4,  C,  R2,  H1,  A1,    H2, -120.0
 H5,  H1, R3,  C,   180.0, H2,  0.0

R1=  2.1316763
R2=  1.0793534
A1= 91.8748237
R3=  0.7503982



--link1--
#p  BLYP/6-311+g(3df,2p) scf=tight iop(3/76=0350006500,3/78=0640006400)
extraoverlay

8/10=90/1;9/16=-1/6;

15 H2+CH3

0 2
 C
 H1,  C,  R1
 H2,  C,  R2,  H1,  A1
 H3,  C,  R2,  H1,  A1,    H2,  120.0
 H4,  C,  R2,  H1,  A1,    H2, -120.0
 H5,  H1, R3,  C,   180.0, H2,  0.0

R1=  2.1903812 
R2=  1.0793218 
A1= 91.4539429 
R3=  0.7490672 



--link1--
#p  BLYP/6-311+g(3df,2p) scf=tight iop(3/76=0350006500,3/78=0640006400)
extraoverlay

8/10=90/1;9/16=-1/6;

16 H2+CH3

0 2
 C
 H1,  C,  R1
 H2,  C,  R2,  H1,  A1
 H3,  C,  R2,  H1,  A1,    H2,  120.0
 H4,  C,  R2,  H1,  A1,    H2, -120.0
 H5,  H1, R3,  C,   180.0, H2,  0.0

R1=  2.2493744
R2=  1.0793053
A1= 91.1196939
R3=  0.7479911



--link1--
#p  BLYP/6-311+g(3df,2p) scf=tight iop(3/76=0350006500,3/78=0640006400)
extraoverlay

8/10=90/1;9/16=-1/6;

17 H2+CH3

0 2
 C
 H1,  C,  R1
 H2,  C,  R2,  H1,  A1
 H3,  C,  R2,  H1,  A1,    H2,  120.0
 H4,  C,  R2,  H1,  A1,    H2, -120.0
 H5,  H1, R3,  C,   180.0, H2,  0.0

R1=  2.3072285
R2=  1.0792983
A1= 90.8708940
R3=  0.7471519



--link1--
#p  BLYP/6-311+g(3df,2p) scf=tight iop(3/76=0350006500,3/78=0640006400)
extraoverlay

8/10=90/1;9/16=-1/6;

18 H2+CH3

0 2
 C
 H1,  C,  R1
 H2,  C,  R2,  H1,  A1
 H3,  C,  R2,  H1,  A1,    H2,  120.0
 H4,  C,  R2,  H1,  A1,    H2, -120.0
 H5,  H1, R3,  C,   180.0, H2,  0.0

R1=  2.3635051
R2=  1.0792944
A1= 90.6898961
R3=  0.7464931




--link1--
#p  BLYP/6-311+g(3df,2p) scf=tight iop(3/76=0350006500,3/78=0640006400)
extraoverlay

8/10=90/1;9/16=-1/6;

19 H2+CH3

0 2
 C
 H1,  C,  R1
 H2,  C,  R2,  H1,  A1
 H3,  C,  R2,  H1,  A1,    H2,  120.0
 H4,  C,  R2,  H1,  A1,    H2, -120.0
 H5,  H1, R3,  C,   180.0, H2,  0.0

R1=  2.4179696
R2=  1.0792907
A1= 90.5593518
R3=  0.7459675



--link1--
#p  BLYP/6-311+g(3df,2p) scf=tight iop(3/76=0350006500,3/78=0640006400)
extraoverlay

8/10=90/1;9/16=-1/6;

20 H2+CH3

0 2
 C
 H1,  C,  R1
 H2,  C,  R2,  H1,  A1
 H3,  C,  R2,  H1,  A1,    H2,  120.0
 H4,  C,  R2,  H1,  A1,    H2, -120.0
 H5,  H1, R3,  C,   180.0, H2,  0.0

R1=  2.4711014
R2=  1.0792832
A1= 90.4638480
R3=  0.7455341




--link1--
#p  BLYP/6-311+g(3df,2p) scf=tight iop(3/76=0350006500,3/78=0640006400)
extraoverlay

8/10=90/1;9/16=-1/6;

21 H2+CH3

0 2
 C
 H1,  C,  R1
 H2,  C,  R2,  H1,  A1
 H3,  C,  R2,  H1,  A1,    H2,  120.0
 H4,  C,  R2,  H1,  A1,    H2, -120.0
 H5,  H1, R3,  C,   180.0, H2,  0.0

R1=  2.5240020
R2=  1.0792808
A1= 90.3930587
R3=  0.7451724





--link1--
#p  BLYP/6-311+g(3df,2p) scf=tight iop(3/76=0350006500,3/78=0640006400)
extraoverlay

8/10=90/1;9/16=-1/6;

22 H2+CH3

0 2
 C
 H1,  C,  R1
 H2,  C,  R2,  H1,  A1
 H3,  C,  R2,  H1,  A1,    H2,  120.0
 H4,  C,  R2,  H1,  A1,    H2, -120.0
 H5,  H1, R3,  C,   180.0, H2,  0.0

R1=  2.5753078
R2=  1.0792777
A1= 90.3427604
R3=  0.7448769



--link1--
#p  BLYP/6-311+g(3df,2p) scf=tight iop(3/76=0350006500,3/78=0640006400)
extraoverlay

8/10=90/1;9/16=-1/6;

23 H2+CH3

0 2
 C
 H1,  C,  R1
 H2,  C,  R2,  H1,  A1
 H3,  C,  R2,  H1,  A1,    H2,  120.0
 H4,  C,  R2,  H1,  A1,    H2, -120.0
 H5,  H1, R3,  C,   180.0, H2,  0.0

R1=  2.6253823
R2=  1.0792739
A1= 90.3063461
R3=  0.7446296




--link1--
#p  BLYP/6-311+g(3df,2p) scf=tight iop(3/76=0350006500,3/78=0640006400)
extraoverlay

8/10=90/1;9/16=-1/6;

24 H2+CH3

0 2
 C
 H1,  C,  R1
 H2,  C,  R2,  H1,  A1
 H3,  C,  R2,  H1,  A1,    H2,  120.0
 H4,  C,  R2,  H1,  A1,    H2, -120.0
 H5,  H1, R3,  C,   180.0, H2,  0.0

R1=  2.6742971
R2=  1.0792697
A1= 90.2798588
R3=  0.7444206



--link1--
#p  BLYP/6-311+g(3df,2p) scf=tight iop(3/76=0350006500,3/78=0640006400)
extraoverlay

8/10=90/1;9/16=-1/6;

25 H2+CH3

0 2
 C
 H1,  C,  R1
 H2,  C,  R2,  H1,  A1
 H3,  C,  R2,  H1,  A1,    H2,  120.0
 H4,  C,  R2,  H1,  A1,    H2, -120.0
 H5,  H1, R3,  C,   180.0, H2,  0.0

R1=  2.7221011
R2=  1.0792651
A1= 90.2601769
R3=  0.7442420




--link1--
#p  BLYP/6-311+g(3df,2p) scf=tight iop(3/76=0350006500,3/78=0640006400)
extraoverlay

8/10=90/1;9/16=-1/6;

26 H2+CH3

0 2
 C
 H1,  C,  R1
 H2,  C,  R2,  H1,  A1
 H3,  C,  R2,  H1,  A1,    H2,  120.0
 H4,  C,  R2,  H1,  A1,    H2, -120.0
 H5,  H1, R3,  C,   180.0, H2,  0.0

R1=   2.7686933
R2=   1.0792602
A1=  90.2456192
R3=   0.7440902




--link1--
#p  BLYP/6-311+g(3df,2p) scf=tight iop(3/76=0350006500,3/78=0640006400)
extraoverlay

8/10=90/1;9/16=-1/6;

27 H2+CH3

0 2
 C
 H1,  C,  R1
 H2,  C,  R2,  H1,  A1
 H3,  C,  R2,  H1,  A1,    H2,  120.0
 H4,  C,  R2,  H1,  A1,    H2, -120.0
 H5,  H1, R3,  C,   180.0, H2,  0.0

R1=  2.8142250
R2=  1.0792551
A1= 90.2342737
R3=  0.7439593


--link1--
#p  BLYP/6-311+g(3df,2p) scf=tight iop(3/76=0350006500,3/78=0640006400)
extraoverlay

8/10=90/1;9/16=-1/6;

28 H2+CH3

0 2
 C
 H1,  C,  R1
 H2,  C,  R2,  H1,  A1
 H3,  C,  R2,  H1,  A1,    H2,  120.0
 H4,  C,  R2,  H1,  A1,    H2, -120.0
 H5,  H1, R3,  C,   180.0, H2,  0.0

R1=  2.8589088
R2=  1.0792500
A1= 90.2254891
R3=  0.7438445



--link1--
#p  BLYP/6-311+g(3df,2p) scf=tight iop(3/76=0350006500,3/78=0640006400)
extraoverlay

8/10=90/1;9/16=-1/6;

29 H2+CH3

0 2
 C
 H1,  C,  R1
 H2,  C,  R2,  H1,  A1
 H3,  C,  R2,  H1,  A1,    H2,  120.0
 H4,  C,  R2,  H1,  A1,    H2, -120.0
 H5,  H1, R3,  C,   180.0, H2,  0.0

R1=  2.9025792
R2=  1.0792449
A1= 90.2181242
R3=  0.7437446



--link1--
#p  BLYP/6-311+g(3df,2p) scf=tight iop(3/76=0350006500,3/78=0640006400)
extraoverlay

8/10=90/1;9/16=-1/6;

30 H2+CH3

0 2
 C
 H1,  C,  R1
 H2,  C,  R2,  H1,  A1
 H3,  C,  R2,  H1,  A1,    H2,  120.0
 H4,  C,  R2,  H1,  A1,    H2, -120.0
 H5,  H1, R3,  C,   180.0, H2,  0.0

R1=  2.9453889
R2=  1.0792398
A1= 90.2122226
R3=  0.7436567



--link1--
#p  BLYP/6-311+g(3df,2p) scf=tight iop(3/76=0350006500,3/78=0640006400)
extraoverlay

8/10=90/1;9/16=-1/6;

31 H2+CH3

0 2
 C
 H1,  C,  R1
 H2,  C,  R2,  H1,  A1
 H3,  C,  R2,  H1,  A1,    H2,  120.0
 H4,  C,  R2,  H1,  A1,    H2, -120.0
 H5,  H1, R3,  C,   180.0, H2,  0.0

R1=   2.9874151
R2=   1.0792348
A1=  90.2067130
R3=   0.7435788



--link1--
#p  BLYP/6-311+g(3df,2p) scf=tight iop(3/76=0350006500,3/78=0640006400)
extraoverlay

8/10=90/1;9/16=-1/6;

32 H2+CH3

0 2
 C
 H1,  C,  R1
 H2,  C,  R2,  H1,  A1
 H3,  C,  R2,  H1,  A1,    H2,  120.0
 H4,  C,  R2,  H1,  A1,    H2, -120.0
 H5,  H1, R3,  C,   180.0, H2,  0.0

R1=  3.0212396
R2=  1.0792307
A1= 90.2028289
R3=  0.7435236





--link1--
#p  BLYP/6-311+g(3df,2p) scf=tight iop(3/76=0350006500,3/78=0640006400)
extraoverlay

8/10=90/1;9/16=-1/6;

33 H2+CH3

0 2
 C
 H1,  C,  R1
 H2,  C,  R2,  H1,  A1
 H3,  C,  R2,  H1,  A1,    H2,  120.0
 H4,  C,  R2,  H1,  A1,    H2, -120.0
 H5,  H1, R3,  C,   180.0, H2,  0.0

R1=  3.0478034
R2=  1.0792277
A1= 90.1997354
R3=  0.7434834




--link1--
#p  BLYP/6-311+g(3df,2p) scf=tight iop(3/76=0350006500,3/78=0640006400)
extraoverlay

8/10=90/1;9/16=-1/6;

34 H2+CH3

0 2
 C
 H1,  C,  R1
 H2,  C,  R2,  H1,  A1
 H3,  C,  R2,  H1,  A1,    H2,  120.0
 H4,  C,  R2,  H1,  A1,    H2, -120.0
 H5,  H1, R3,  C,   180.0, H2,  0.0

R1=  3.0685133
R2=  1.0792253
A1= 90.1973393
R3=  0.7434533




--link1--
#p  BLYP/6-311+g(3df,2p) scf=tight iop(3/76=0350006500,3/78=0640006400)
extraoverlay

8/10=90/1;9/16=-1/6;

35 H2+CH3

0 2
 C
 H1,  C,  R1
 H2,  C,  R2,  H1,  A1
 H3,  C,  R2,  H1,  A1,    H2,  120.0
 H4,  C,  R2,  H1,  A1,    H2, -120.0
 H5,  H1, R3,  C,   180.0, H2,  0.0

R1=  3.0850017
R2=  1.0792234
A1= 90.1955001
R3=  0.7434301




--link1--
#p  BLYP/6-311+g(3df,2p) scf=tight iop(3/76=0350006500,3/78=0640006400)
extraoverlay

8/10=90/1;9/16=-1/6;

36 H2+CH3

0 2
 C
 H1,  C,  R1
 H2,  C,  R2,  H1,  A1
 H3,  C,  R2,  H1,  A1,    H2,  120.0
 H4,  C,  R2,  H1,  A1,    H2, -120.0
 H5,  H1, R3,  C,   180.0, H2,  0.0

R1=   3.0982751
R2=   1.0792218
A1=  90.1940029
R3=   0.7434118



--link1--
#p  BLYP/6-311+g(3df,2p) scf=tight iop(3/76=0350006500,3/78=0640006400)
extraoverlay

8/10=90/1;9/16=-1/6;

37 H2+CH3

0 2
 C
 H1,  C,  R1
 H2,  C,  R2,  H1,  A1
 H3,  C,  R2,  H1,  A1,    H2,  120.0
 H4,  C,  R2,  H1,  A1,    H2, -120.0
 H5,  H1, R3,  C,   180.0, H2,  0.0

R1=  3.1091467
R2=  1.0792206
A1= 90.1928482
R3=  0.7433972




