%nproc=8
%chk=F235.chk
#p b3lyp/6-311+G(d,p) opt freq

H_012_C2H5NO3

0 1
 N           1.157158   -0.024280    0.000009
 O          -0.164400   -0.532334    0.000028
 O           1.293290    1.177311   -0.000069
 O           1.989694   -0.888365   -0.000033
 C          -1.203363    0.484506    0.000013
 C          -2.516184   -0.274126    0.000048
 H          -3.341073    0.442930    0.000037
 H          -2.607073   -0.903232    0.887303
 H          -2.607092   -0.903284   -0.887168
 H          -1.088142    1.109155   -0.887780
 H          -1.088122    1.109205    0.887770

  
