%nproc=8
%chk=F277.chk
#p b3lyp/6-311+G(d,p) opt freq

test

0 1
 C                 -1.63815800    0.03951800    0.54634600
 C                 -0.26271700   -0.60556900    0.64339700
 C                  0.81745900   -0.00895600   -0.27892800
 C                  2.09030500   -0.86486600   -0.22226100
 O                 -2.12584700   -0.12756900   -0.78994500
 H                 -2.99353300    0.28082500   -0.85833000
 C                  1.13463100    1.45446800    0.05952200
 H                  1.91178800    1.84607400   -0.60340300
 H                  1.49933900    1.54956400    1.08904300
 H                  0.26057100    2.10192900   -0.04836800
 H                  2.85658300   -0.47986600   -0.90161600
 H                  1.88540600   -1.90215400   -0.50347200
 H                  2.51601200   -0.87108300    0.78781900
 H                  0.42831000   -0.04479900   -1.30220000
 H                 -0.37504000   -1.67219400    0.41848100
 H                  0.07095600   -0.53753500    1.68762200
 H                 -1.58658000    1.10564800    0.80289100
 H                 -2.31616000   -0.44342000    1.26264300  
  
