%nproc=8
%chk=F300.chk
#p b3lyp/6-311+G(d,p) opt freq

test

0 1
 C                 -2.04226800   -0.00000100   -0.00041400
 C                 -0.61036100   -0.00000100   -0.00030400
 C                  0.09027400   -1.21515200   -0.00020100
 C                  1.48078700   -1.20876000    0.00008600
 C                  2.17674300    0.00000100    0.00023100
 C                  1.48078600    1.20876000    0.00008600
 C                  0.09027300    1.21515100   -0.00020100
 N                 -3.19781200    0.00000000    0.00058400
 H                  2.02149300    2.14789100    0.00019200
 H                  3.26069400    0.00000100    0.00045300
 H                  2.02149500   -2.14789000    0.00019200
 H                 -0.45820100    2.14899700   -0.00031600
 H                 -0.45819900   -2.14899800   -0.00031600  
  
