%nproc=8
%chk=F332.chk
#p b3lyp/6-311+G(d,p) opt freq

test

0 2
 C                 -1.22805300    0.19606100    0.00000000
 H                 -1.29639400    1.27856600    0.00000000
 H                 -2.15521700   -0.36263300    0.00000700
 C                 -0.00000500   -0.44234800   -0.00000200
 C                  1.22805500    0.19605500    0.00000000
 H                 -0.00000300   -1.53048000   -0.00000300
 H                  1.29640400    1.27856200   -0.00000300
 H                  2.15523000   -0.36262100    0.00001000  
  
