%nproc=8
%chk=F336.chk
#p b3lyp/6-311+G(d,p) opt freq

test

0 1
 C                  1.33444500   -1.46152500    0.00000000
 H                  1.86080100   -2.38431900    0.00000000
 C                  0.73867900   -0.41641500    0.00000000
 C                  0.00000000    0.84386900    0.00000000
 H                  0.29881800    1.43016000    0.87619300
 H                  0.29881800    1.43016000   -0.87619300
 C                 -1.52772800    0.65201000    0.00000000
 H                 -2.03130100    1.62213700    0.00000000
 H                 -1.84975800    0.09711500   -0.88384100
 H                 -1.84975800    0.09711500    0.88384100  
  
