%nproc=8
%chk=F378.chk
#p b3lyp/6-311+G(d,p) opt freq

test

0 1
 C                 -1.89709100    0.56328600   -0.00000100
 C                 -0.69763000   -0.34495500   -0.00001800
 H                 -2.80761000   -0.03359700   -0.00021300
 H                 -1.87070800    1.21961300    0.87428500
 H                 -1.87050600    1.21999000   -0.87399000
 C                  0.69763000    0.34495500    0.00000500
 C                  1.89709000   -0.56328600    0.00001000
 H                  2.80761000    0.03359600    0.00022900
 H                  1.87049300   -1.21998400    0.87400400
 H                  1.87071800   -1.21962000   -0.87427100
 O                 -0.75925800   -1.55364400    0.00000200
 O                  0.75925800    1.55364400   -0.00000400  
  
