%nproc=8
%chk=F399.chk
#p b3lyp/6-311+G(d,p) opt freq

test

0 2
 N                 -0.00000900   -0.00000700    0.00000800
 O                 -1.20602000   -0.26170500   -0.00000200
 O                  0.82966600   -0.91355900   -0.00000200
 O                  0.37636200    1.17527100   -0.00000200  
  
