%nproc=8
%chk=F523.chk
#p b3lyp/6-311+G(d,p) opt freq

test

0 1
  S              -0.464498    0.937443   -0.492354
  S               0.464498   -0.937443   -0.492354
  C               0.464498    1.856861    0.793412
  H               1.524914    1.894350    0.547220
  H               0.055055    2.869597    0.790235
  H               0.320091    1.416515    1.779729
  C              -0.464498   -1.856861    0.793412
  H              -0.055055   -2.869597    0.790235
  H              -0.320091   -1.416515    1.779729
  H              -1.524914   -1.894350    0.547220
 
