%nproc=8
%chk=F536.chk
#p b3lyp/6-311+G(d,p) opt freq

test

0 1
 C                 -0.45511700    0.23573200   -0.01131100
 C                 -1.40687600   -0.93907300    0.00038800
 O                 -0.79620700    1.38699800   -0.00121400
 S                  1.29477800   -0.26307400   -0.00329600
 H                  1.75993600    1.00054900    0.06148400
 H                 -1.01459900   -1.78691800   -0.56335300
 H                 -2.36700200   -0.62292500   -0.40721300
 H                 -1.55316300   -1.25746200    1.03706200  
  
