#p b3lyp 6-311+g(3df,2p) scf=tight nosymm

E1

0    1
    H      0.62927706      0.62927706     -0.62927706
    C      0.00000000      0.00000000      0.00000000
    H     -0.62927706     -0.62927706     -0.62927706
    H      0.62927706     -0.62927706      0.62927706
    H     -0.62927706      0.62927706      0.62927706
 
 
 
