#p b3lyp 6-311+g(3df,2p) scf=tight nosymm

E12

0    1
    C     -0.59462263      0.26191567      0.00000000
    C      0.79165195     -0.31846811      0.00000000
    O      1.80877774      0.32844986      0.00000000
    H     -0.56041293      1.35044661      0.00000000
    H     -1.14144400     -0.09664657      0.87804031
    H     -1.14144400     -0.09664657     -0.87804031
    H      0.83749387     -1.42905088      0.00000000
 
 
 
