#p b3lyp 6-311+g(3df,2p) scf=tight nosymm

E13

0    1
    C      0.00000000      0.00000000     -0.48852111
    C      0.00000000      0.00000000      0.96697243
    N      0.00000000      0.00000000      2.11795701
    H     -0.51193738     -0.88670156     -0.86546945
    H     -0.51193738      0.88670156     -0.86546945
    H      1.02387477      0.00000000     -0.86546945
 
 
 
