#p b3lyp 6-311+g(3df,2p) scf=tight nosymm

E16

0    1
    C     -1.88046273      0.00111379      0.32862904
    C     -0.56272148      0.00890691     -0.42565506
    N      0.56175799      0.02419386      0.34436053
    O     -0.51565477      0.00894847     -1.64564208
    H      0.47061183     -0.03031225      1.34431653
    C      1.89172525     -0.00184746     -0.24176106
    H     -2.46762960      0.86511820      0.01475945
    H     -1.76695211      0.02377746      1.41376552
    H     -2.43852198     -0.89339964      0.04804046
    H      1.93886911      0.69761226     -1.07585927
    H      2.14970083     -0.99537615     -0.61943132
    H      2.61927765      0.29126454      0.51447727
 
 
 
