#p b3lyp 6-311+g(3df,2p) scf=tight nosymm

E18

0    1
    C     -0.96298974      0.08007496      0.00000000
    C      0.53058977      0.25142252      0.00000000
    O      1.16969489     -0.94801168      0.00000000
    O      1.12511878      1.29867159      0.00000000
    H      2.12235455     -0.76340826      0.00000000
    H     -1.44059983      1.05608631      0.00000000
    H     -1.27208421     -0.48741771      0.87972924
    H     -1.27208421     -0.48741771     -0.87972924
 
 
 
