#p b3lyp 6-311+g(3df,2p) scf=tight nosymm

E2

0    1
    C      0.00615781      0.71925453      0.00000000
    C     -1.19602413      0.00414318      0.00000000
    C     -1.20274913     -1.38589402      0.00000000
    C     -0.00214357     -2.09218316      0.00000000
    C      1.20029940     -1.39451165      0.00000000
    C      1.20134014     -0.00151201      0.00000000
    C      0.00247516      2.22804642      0.00000000
    H     -2.13734484      0.54394931      0.00000000
    H     -2.14605819     -1.91973222      0.00000000
    H     -0.00594635     -3.17562834      0.00000000
    H      2.14101306     -1.93281054      0.00000000
    H      2.14529091      0.53273177      0.00000000
    H      1.01771362      2.62724733      0.00000000
    H     -0.51201194      2.62344970     -0.88028394
    H     -0.51201194      2.62344970      0.88028394
 
 
 
