#p b3lyp 6-311+g(3df,2p) scf=tight nosymm

E22

1    1
    C      0.00000000      0.00000000     -0.77060079
    N      0.00000000      0.00000000      0.74478827
    H     -0.47664430      0.82557214      1.11980081
    H     -0.47664430     -0.82557214      1.11980081
    H      0.95328860      0.00000000      1.11980081
    H     -1.03205449      0.00000000     -1.11119664
    H      0.51602724      0.89378540     -1.11119664
    H      0.51602724     -0.89378540     -1.11119664
 
 
 
