#p b3lyp 6-311+g(3df,2p) scf=tight nosymm

E32

0    1
    C     -0.34178642      0.12129332      0.00000000
    O      1.07982841      0.19878835      0.00000000
    H      1.43664403     -0.69532472      0.00000000
    H     -0.71318581      1.14551846      0.00000000
    H     -0.73075010     -0.38513771     -0.89146635
    H     -0.73075010     -0.38513771      0.89146635
 
 
 
