#p b3lyp 6-311+g(3df,2p) scf=tight nosymm

E34

0    1
    C      0.00000000     -1.39649374      0.01611279
    S      0.00000000      0.00000000      1.19861269
    C      0.00000000      1.39649374      0.01611279
    H      0.00000000     -2.31224638      0.60621508
    H     -0.89236330     -1.38056214     -0.61081711
    H      0.89236330     -1.38056214     -0.61081711
    H      0.00000000      2.31224638      0.60621508
    H     -0.89236330      1.38056214     -0.61081711
    H      0.89236330      1.38056214     -0.61081711
 
 
 
