#p b3lyp 6-311+g(3df,2p) scf=tight nosymm

E37

0    1
    C     -0.46481411      0.19511100      0.00000000
    S      1.37476050      0.25112420      0.00000000
    H      1.57790555     -1.08429433      0.00000000
    H     -0.79878418      1.23132118      0.00000000
    H     -0.84453388     -0.29663103     -0.89359015
    H     -0.84453388     -0.29663103      0.89359015
 
 
 
