#p b3lyp 6-311+g(3df,2p) scf=tight nosymm

E4

0    1
    F     -1.70885680     -0.27641577      0.00000000
    C     -0.51014220      0.34736401      0.00000000
    C      0.62731808     -0.31909462      0.00000000
    H     -0.62149122      1.42444596      0.00000000
    H      0.65160902     -1.40061495      0.00000000
    H      1.56156312      0.22431537      0.00000000
 
 
 
