#p b3lyp 6-311+g(3df,2p) scf=tight nosymm

E40

0    1
    N     -0.94317906     -0.63960712     -0.14924355
    C      0.02101284      0.45508683     -0.05205442
    C      1.39674185     -0.05026368     -0.09343694
    N      2.48018130     -0.43823315     -0.09394836
    H     -1.88564809     -0.27329231     -0.20719523
    H     -0.88870999     -1.24972022      0.65801165
    H     -0.11321230      1.11680876     -0.91170637
    H     -0.06718655      1.07922089      0.84957322
 
 
 
