#p b3lyp 6-311+g(3df,2p) scf=tight nosymm

E42

0    1
    N      0.27661181      0.27245739      1.55708312
    C     -0.52042446     -0.06911222      0.39075212
    C      0.30387738      0.06882606     -0.86832798
    O      1.50707036      0.04325543     -0.91631550
    O     -0.47649901      0.17995857     -1.96848945
    H      1.22036734     -0.08392455      1.45617143
    H     -0.12822542     -0.10525741      2.40378304
    H      0.11282349      0.20987573     -2.73894413
    H     -0.90531318     -1.10287494      0.37415569
    H     -1.39028830      0.58679594      0.31013166
 
 
 
