#p b3lyp 6-311+g(3df,2p) scf=tight nosymm

E9

0    1
    C     -0.66744447     -0.39294153      0.00000000
    C      0.59344377      0.44005421      0.00000000
    F      1.72185429     -0.39504785      0.00000000
    H     -1.54384843      0.26074943      0.00000000
    H     -0.71338203     -1.02791266     -0.88640654
    H     -0.71338203     -1.02791266      0.88640654
    H      0.66137945      1.07150553      0.88949993
    H      0.66137945      1.07150553     -0.88949993
 
 
 
