#p b3lyp 6-311+g(3df,2p) scf=tight nosymm

P11

0    2
    C      1.22625682      0.00000000     -0.16437228
    C      0.00000000      0.00000000      0.47192731
    C     -1.22625682      0.00000000     -0.16437228
    H      1.29645492      0.00000000     -1.24599926
    H      2.15227859      0.00000000      0.39469835
    H      0.00000000      0.00000000      1.55941906
    H     -1.29645492      0.00000000     -1.24599926
    H     -2.15227859      0.00000000      0.39469835
 
 
 
