#p b3lyp 6-311+g(3df,2p) scf=tight nosymm

P15

0    2
    C     -1.20030631     -0.24100758      0.00000000
    C      0.02840013      0.53690773      0.00000000
    N      1.20077436     -0.17991749      0.00000000
    O      0.02143586      1.76533866      0.00000000
    H     -1.20959678     -1.32376309      0.00000000
    H     -2.13569936      0.29818130      0.00000000
    H      1.22561944     -1.18418613      0.00000000
    H      2.06937265      0.32844660      0.00000000
 
 
 
