#p b3lyp 6-311+g(3df,2p) scf=tight nosymm

P16

0    2
    C     -2.00696061      0.00228084      0.40532187
    C     -0.77127120      0.01444883     -0.36065578
    N      0.38850084      0.03819040      0.37515178
    O     -0.75932418      0.01467719     -1.59140204
    H      0.33536539     -0.04827606      1.37604471
    C      1.69079529     -0.00167655     -0.26293145
    H     -2.02519565      0.00409299      1.48819265
    H     -2.93897103     -0.00831976     -0.13973349
    H      1.70685290      0.69066113     -1.10436160
    H      1.92918675     -0.99934144     -0.64541171
    H      2.45102150      0.29326243      0.45978506
 
 
 
