#p b3lyp 6-311+g(3df,2p) scf=tight nosymm

P21

0    2
    C      0.68268426     -0.02476657      0.00000000
    N     -0.70627943      0.08786474      0.00000000
    H      1.18727733      0.19945084      0.92958315
    H     -1.17547975     -0.23099993     -0.83522414
    H      1.18727733      0.19945084     -0.92958315
    H     -1.17547975     -0.23099993      0.83522414
 
 
 
