#p b3lyp 6-311+g(3df,2p) scf=tight nosymm

P22

1    2
    C     -0.86530402      0.03812316      0.00000000
    N      0.60437394      0.02008313      0.00000000
    H     -1.34955639     -0.05207973     -0.95893297
    H      0.98643279      0.49209917      0.82809765
    H     -1.34955639     -0.05207973      0.95893297
    H      0.98717727     -0.93824517      0.00000000
    H      0.98643279      0.49209917     -0.82809765
 
 
 
