#p b3lyp 6-311+g(3df,2p) scf=tight nosymm

P23

0    2
    C     -1.35735872     -0.17650331      0.04189296
    N     -0.18785520      0.54972906     -0.10980002
    H     -0.20676250      1.47226418      0.30015809
    C      1.09220961     -0.12529920      0.00942944
    H     -2.28249202      0.38322100      0.03749941
    H     -1.35653199     -1.18463203     -0.35197536
    H      1.12752324     -0.95747610     -0.69748645
    H      1.89668911      0.56564994     -0.24572031
    H      1.27457847     -0.52695354      1.01600224
 
 
 
