#p b3lyp 6-311+g(3df,2p) scf=tight nosymm

P26

0    2
    C     -1.49839757      0.22652806      0.00000000
    N     -0.19228854     -0.22615917      0.00000000
    C      0.57211284     -0.06362089      1.22355311
    C      0.57211284     -0.06362089     -1.22355311
    H     -2.04244714      0.14920716     -0.93134821
    H     -2.04244714      0.14920716      0.93134821
    H     -0.04203624     -0.35011801     -2.07804556
    H      0.90644048      0.97485956     -1.37134585
    H      1.45127311     -0.71051226     -1.19906898
    H     -0.04203624     -0.35011801      2.07804556
    H      0.90644048      0.97485956      1.37134585
    H      1.45127311     -0.71051226      1.19906898
 
 
 
