#p b3lyp 6-311+g(3df,2p) scf=tight nosymm

P27

0    2
    C      0.00000000      0.00000000      0.73389664
    N      0.00000000      0.00000000     -0.67973088
    O     -1.09742864      0.00000000     -1.24760236
    O      1.09742864      0.00000000     -1.24760236
    H     -0.96173636      0.00000000      1.22051947
    H      0.96173636      0.00000000      1.22051947
 
 
 
