#p b3lyp 6-311+g(3df,2p) scf=tight nosymm

P33

1    2
    C     -1.08464387      0.00687336      0.00017656
    P      0.68757059      0.00561984     -0.00105771
    H     -1.62294020     -0.01451925     -0.93854913
    H      1.20488860      0.81252378      1.02965442
    H     -1.61987368     -0.01476880      0.94096310
    H      1.24238575     -1.27960375      0.19130660
    H      1.19261281      0.48387483     -1.22249384
 
 
 
