#p b3lyp 6-311+g(3df,2p) scf=tight nosymm

P34

0    2
    C     -1.54379756     -0.06415487      0.03091220
    S     -0.29426543      1.12620387      0.00422062
    C      1.20549354      0.07797314      0.02138222
    H     -2.55963996      0.29595107      0.08668443
    H     -1.33590893     -1.09599726     -0.21169341
    H      2.06272238      0.74729200     -0.02962863
    H      1.21433220     -0.58461226     -0.84359582
    H      1.25106376     -0.50265570      0.94171838
 
 
 
