#p b3lyp 6-311+g(3df,2p) scf=tight nosymm

P36

1    2
    C     -0.82155916      0.19115385      0.00406872
    S      0.95048082      0.29579091      0.00496870
    H     -1.30957891      0.33694275      0.95781368
    H      1.24402945     -0.56084755     -1.01589846
    H     -1.30975327      0.32761007     -0.95092209
    H      1.24638107     -0.59065002      0.99996944
 
 
 
