#p b3lyp 6-311+g(3df,2p) scf=tight nosymm

P39

0    2
    C     -0.86977788     -1.24014049      0.04313053
    S     -0.65405464      0.37547158     -0.60896119
    O     -1.58554102      1.34685114      0.09552597
    C      1.06528105      0.69806482      0.00707099
    H     -1.84687939     -1.46071001      0.45118975
    H     -0.23057546     -2.03100500     -0.33038260
    H      1.74228913     -0.05666148     -0.39220802
    H      1.33525122      1.68656584     -0.36013568
    H      1.04400698      0.68156360      1.09477024
 
 
 
