#p b3lyp 6-311+g(3df,2p) scf=tight nosymm

P4

0    2
    F     -1.86655706      0.00494536      0.00000000
    C     -0.66728224      0.54337754      0.00000000
    C      0.51377557     -0.02459664      0.00000000
    H      0.61374292     -1.10741026      0.00000000
    H      1.40632081      0.58368400      0.00000000
 
 
 
