#p b3lyp 6-311+g(3df,2p) scf=tight nosymm

P41

0    2
    N     -1.79057770     -0.26666274      0.03738761
    C     -0.61210472      0.41189738     -0.03196422
    C      0.60113781     -0.36380152     -0.01066246
    O      0.57792057     -1.59978138     -0.01465418
    N      1.79481478      0.33789011     -0.03515680
    H     -1.71731092     -1.27162639     -0.05837457
    H     -2.64988990      0.17022600     -0.24840611
    H     -0.63801424      1.49147764     -0.06588078
    H      1.81578483      1.29901531      0.26497204
    H      2.61823951     -0.20863441      0.16273947
 
 
 
