#p b3lyp 6-311+g(3df,2p) scf=tight nosymm

P42

0    2
    N     -1.56570222      0.14388362      0.00000000
    C     -0.39039838     -0.53188444      0.00000000
    C      0.81964125      0.22351722      0.00000000
    O      0.87221958      1.44895716      0.00000000
    O      1.94410134     -0.55664970      0.00000000
    H     -2.44351658     -0.32116835      0.00000000
    H     -1.53173915      1.15026564      0.00000000
    H     -0.40063562     -1.61036195      0.00000000
    H      2.69602978      0.05344081      0.00000000
 
 
 
