#p b3lyp 6-311+g(3df,2p) scf=tight nosymm

P43

0    2
    C      0.00000000      0.00000000     -1.08172393
    C      0.00000000      0.00000000      0.28346695
    C      0.00000000      0.00000000      1.50524771
    H     -0.92913087      0.00000000     -1.63727781
    H      0.92913087      0.00000000     -1.63727781
    H      0.00000000      0.00000000      2.56756489
 
 
 
