#p b3lyp 6-311+g(3df,2p) scf=tight nosymm

P44

0    2
    C      0.70478552      1.31689786      0.00000000
    C      0.00000000      0.00000000      0.00000000
    C     -1.49285976     -0.04808676      0.00000000
    C      0.78807424     -1.26881109      0.00000000
    H      0.00241306      2.15356348      0.00000000
    H      1.35824489      1.43439789      0.87824292
    H      1.35824489      1.43439789     -0.87824292
    H     -1.86624722     -1.07469197      0.00000000
    H     -1.92134745      0.45907563     -0.87824292
    H     -1.92134745      0.45907563      0.87824292
    H      1.86383416     -1.07887151      0.00000000
    H      0.56310257     -1.89347352     -0.87824292
    H      0.56310257     -1.89347352      0.87824292
 
 
 
