#p b3lyp 6-311+g(3df,2p) scf=tight nosymm

P8

0    2
    C     -0.73528453      0.53218605      0.00000000
    C      0.27088130     -0.51536586      0.00000000
   Cl      2.01185891      0.25393593      0.00000000
    H     -1.04594016      0.99315891     -0.92836643
    H     -1.04594016      0.99315891      0.92836643
    H      0.27221232     -1.12853697     -0.89608666
    H      0.27221232     -1.12853697      0.89608666
 
 
 
