#p b3lyp 6-311+g(3df,2p) scf=tight nosymm

P9

0    2
    C     -0.77285106      0.41760152      0.00000000
    C      0.45764011     -0.39898851      0.00000000
    F      1.60896674      0.44055625      0.00000000
    H     -1.18292355      0.79285219     -0.92838990
    H     -1.18292355      0.79285219      0.92838990
    H      0.53604565     -1.02243682     -0.89255086
    H      0.53604565     -1.02243682      0.89255086
 
 
 
