#p b3lyp/6-31G scf=tight

H2O-9-D2dDD

0 1
O  0.228290 -3.096920  1.029720 
H  0.441170 -3.976180  0.706770 
H  0.974100 -2.504710  0.741620 
O -1.029530  0.673490  1.945790 
H -1.429540  1.282670  1.299950 
H -1.308860 -0.196690  1.609920 
O  2.115640 -1.389520  0.258000 
H  2.086180 -0.609360  0.840800 
H  1.934160 -1.010630 -0.621070 
O -1.859640 -1.611660  0.412640 
H -1.150220 -2.275680  0.619860 
H -2.698000 -2.037780  0.612100 
O -1.792080  2.061540 -0.409580 
H -0.848920  2.353410 -0.544160 
H -2.344340  2.836200 -0.547760 
O -1.315130 -0.253760 -1.994960 
H -1.539610 -0.878680 -1.280870 
H -1.641260  0.592400 -1.640320 
O  1.574310  1.064380  1.587590 
H  1.987890  1.367380  2.401020 
H  0.617960  0.892190  1.806070 
O  1.310710  0.089760 -2.036610 
H  0.331660 -0.095800 -2.080110 
H  1.649170 -0.037740 -2.927620 
O  0.797040  2.554050 -0.705140 
H  1.187560  2.260630  0.137980 
H  1.087870  1.860580 -1.324680 

