#p b3lyp/6-31G scf=tight

H2O-16-Pr4444

0 1
O  1.461480 -1.327600 -1.353220
H  1.752410 -1.515580 -2.262910
H  0.494650 -1.478150 -1.385430
O  1.461480  1.327600  1.353220
H  0.494650  1.478150  1.385430
H  1.752410  1.515580  2.262910
O  1.089520 -1.564070  4.334860
H  1.349150 -1.797040  3.427240
H  1.399750 -0.645990  4.429810
O  1.358940 -1.480240  1.495220
H  1.496100 -0.511150  1.433610
H  1.671650 -1.803630  0.636070
O -1.358940  1.480240  1.495220
H -1.496100  0.511150  1.433610
H -1.671650  1.803630  0.636070
O -1.089520 -1.564070 -4.334860
H -1.349150 -1.797040 -3.427240
H -1.399750 -0.645990 -4.429810
O -1.564130  1.283130 -4.175150
H -2.024300  1.818770 -4.828060
H -0.594190  1.470250 -4.292410
O -1.564130 -1.283130  4.175150
H -0.594190 -1.470250  4.292410
H -2.024300 -1.818770  4.828060
O  1.564130  1.283130  4.175150
H  2.024300  1.818770  4.828060
H  0.594190  1.470250  4.292410
O  1.089520  1.564070 -4.334860
H  1.349150  1.797040 -3.427240
H  1.399750  0.645990 -4.429810
O -1.461480 -1.327600  1.353220
H -1.752410 -1.515580  2.262910
H -0.494650 -1.478150  1.385430
O -1.461480  1.327600 -1.353220
H -0.494650  1.478150 -1.385430
H -1.752410  1.515580 -2.262910
O  1.564130 -1.283130 -4.175150
H  2.024300 -1.818770 -4.828060
H  0.594190 -1.470250 -4.292410
O -1.089520  1.564070  4.334860
H -1.349150  1.797040  3.427240
H -1.399750  0.645990  4.429810
O -1.358940 -1.480240 -1.495220
H -1.496100 -0.511150 -1.433610
H -1.671650 -1.803630 -0.636070
O  1.358940  1.480240 -1.495220
H  1.671650  1.803630 -0.636070
H  1.496100  0.511150 -1.433610

