#p b3lyp/6-31G scf=tight

H2O-6-Book

0 1
O -1.482840 -0.714630 -0.344050
H -2.370790 -0.864540 -0.008350
H -1.510960  0.162460 -0.781140
O  3.041960 -0.537180  0.238510
H  3.014590 -1.248410 -0.407440
H  2.150240 -0.524070  0.672850
O  0.644070 -0.158990  1.384130
H  0.588020  0.804990  1.291070
H -0.116670 -0.483940  0.862200
O  3.129580  2.028140 -0.503130
H  3.926610  2.415940 -0.131300
H  3.180860  1.060260 -0.293480
O -1.345090  1.855910 -1.339280
H -1.111230  2.056290 -2.249670
H -0.618630  2.213290 -0.789520
O  0.680840  2.588810  0.401100
H  0.655290  3.403400  0.911030
H  1.611890  2.487610  0.073460


