#p b3lyp/6-31G scf=tight

H2O-6-Cyclic

0 1
O  0.781380  2.576250 -0.025840
H -0.188640  2.410960 -0.105090
H  0.881180  3.188180  0.708380
O  1.421650 -2.039900  0.385840
H  1.817540 -2.349430  1.204970
H  1.769330 -1.125880  0.250650
O  2.430350  0.439490  0.041040
H  1.810160  1.207280  0.026100
H  2.991260  0.544170 -0.732140
O -1.240420 -2.435390  0.185030
H -1.339240 -3.052770 -0.544700
H -0.270470 -2.270070  0.264720
O -1.880600  2.180800 -0.226470
H -2.277000  2.495840 -1.043260
H -2.228720  1.266120 -0.096800
O -2.890420 -0.300140  0.103550
H -3.459560 -0.406630  0.870450
H -2.269900 -1.067550  0.123840


