#p b3lyp/6-31G scf=tight

H2O-13-Pr454

0 1
O  3.258030  4.399600 -1.977870 
H  3.331370  3.544140 -2.432640 
H  2.298740  4.529430 -1.872370 
O  0.091140 -1.068930 -2.221390 
H  0.333660 -1.458020 -1.362600 
H  0.013490 -0.118240 -2.018080 
O  5.011910  0.323760 -0.933070 
H  4.597710 -0.581780 -1.002240 
H  5.946900  0.211470 -1.127630 
O  1.144940  3.946940  1.374580 
H  2.106990  4.092990  1.315390 
H  1.050040  3.008890  1.604110 
O  0.515070  4.328700 -1.195010 
H -0.166960  4.994960 -1.319040 
H  0.667150  4.253980 -0.215370 
O  1.370100  0.871960  1.219150 
H  1.155820  1.168600  0.312270 
H  2.333960  1.043970  1.340950 
O  3.178190  1.589440 -2.673490 
H  2.973110  0.840230 -3.261590 
H  3.878500  1.240370 -2.087300 
O  3.716680 -1.952160 -1.227330 
H  2.964900 -1.974850 -0.607220 
H  3.309450 -1.799900 -2.099120 
O  3.879700  4.147100  0.634770 
H  4.517840  4.822810  0.881660 
H  3.736960  4.243930 -0.343600 
O  0.686170  1.537420 -1.423540 
H  0.358430  2.453380 -1.454800 
H  1.566060  1.583280 -1.854240 
O  1.308680 -1.710510  0.316830 
H  1.020680 -2.340960  0.983910 
H  1.305630 -0.824340  0.759790 
O  4.053360  1.433880  1.495890 
H  4.118610  2.380240  1.283490 
H  4.505010  0.995940  0.754180 
O  2.378340 -0.984340 -3.565650 
H  2.307930 -1.422080 -4.419040 
H  1.478460 -1.056610 -3.140720 

