#p b3lyp/6-31G scf=tight

H2O-10-Prism-2

0 1
O -1.920930  0.293030  2.043670 
H -2.061260 -0.657650  1.767420 
H -2.632830  0.496650  2.657360 
O  1.506210  1.459970  0.423390 
H  2.098360  2.166870  0.695500 
H  1.301740  0.932670  1.255130 
O  0.831160  0.117640  2.545040 
H  0.928270 -0.850770  2.472830 
H -0.136560  0.248220  2.563230 
O -1.279920  1.620610 -0.396220 
H -1.671560  1.247860  0.413170 
H -0.360170  1.799220 -0.144070 
O  1.935330 -0.337250 -1.543400 
H  2.706660 -0.111800 -2.071370 
H  1.873660  0.353260 -0.840260 
O -1.364760 -2.641020 -1.335140 
H -1.827970 -3.160940 -1.998610 
H -1.227280 -1.733470 -1.743830 
O -0.841420 -0.291820 -2.333570 
H  0.128580 -0.256410 -2.301090 
H -1.116470  0.412550 -1.703490 
O  1.300930 -2.902310 -0.471110 
H  1.674260 -2.079410 -0.833780 
H  0.421550 -2.970190 -0.889270 
O  0.619860 -2.646740  2.050680 
H  0.938120 -2.763390  1.109730 
H  0.991150 -3.381660  2.547690 
O -2.102950 -2.239070  1.359210 
H -1.247980 -2.555560  1.701970 
H -2.038210 -2.397130  0.398420 

