#p b3lyp/6-31G scf=tight

H2O-5-Cyclic

0 1
O -1.112420 -1.551030  1.313010 
H -0.717140 -2.039910  2.040060 
H -1.013040 -0.598040  1.546560 
O -0.058140 -2.010940 -1.154480 
H -0.755270 -2.415320 -1.677490 
H -0.443680 -1.873030 -0.257310 
O  0.716130  2.202100 -0.094960 
H  0.911630  1.523940 -0.783470 
H  1.571000  2.543990  0.180990 
O -0.773810  1.085550  1.889170 
H -0.233450  1.516010  1.185120 
H -1.568500  1.619580  1.972550 
O  1.248430  0.264060 -1.926420 
H  1.058110  0.440280 -2.851410 
H  0.775720 -0.571160 -1.704990 

