#p b3lyp/6-31G scf=tight

H2O-14-Pr2444

0 1
O -4.474220  1.674100 -2.952740
H -5.233050  2.146470 -3.308410
H -4.720630  0.711160 -2.958700
O  2.032530 -1.970220 -2.046320
H  1.871450 -2.021600 -3.028850
H  2.987020 -1.974390 -1.928540
O  0.022770 -0.141910 -1.411790
H -0.579800 -0.863190 -1.117860
H  0.893950 -0.575340 -1.480990
O -1.852300  2.188720 -3.994000
H -1.486930  2.447710 -3.133150
H -2.794920  2.047190 -3.796640
O -3.990840 -1.103370 -0.002070
H -3.838670 -0.119720 -0.004020
H -4.514800 -1.291350  0.782060
O  0.240920 -4.247980 -1.633950
H -0.455360 -3.754760 -1.165000
H  0.983610 -3.620380 -1.651920
O -0.686000 -4.177310 -4.173080
H -0.353940 -4.311200 -3.247200
H -0.716610 -5.049260 -4.577810
O -1.649190 -2.270410 -0.946510
H -2.050650 -2.308060 -1.843230
H -2.398360 -2.003870 -0.381760
O -0.741270 -0.332370 -4.122220
H -1.119560  0.555240 -4.310760
H -0.435340 -0.233560 -3.199470
O -1.072470  2.334770 -1.150610
H -0.519460  2.982180 -0.703800
H -0.559210  1.496640 -1.164830
O -5.045790 -0.932410 -2.728380
H -4.365500 -1.466900 -3.175900
H -4.879780 -1.099730 -1.784820
O -3.664820  1.536000 -0.224410
H -2.748070  1.837280 -0.352720
H -4.078620  1.728750 -1.085810
O  1.350050 -2.134770 -4.621050
H  0.735110 -1.383160 -4.709710
H  0.760170 -2.907620 -4.663170
O -2.650420 -2.230130 -3.528380
H -2.258810 -3.038910 -3.901760
H -2.054690 -1.516480 -3.851010

