#p b3lyp/6-31G scf=tight

H2O-6-Bag

0 1
O  2.472560 -2.539170  2.545030 
H  3.009780 -2.544700  1.731320 
H  1.571340 -2.344850  2.227830 
O  3.736490 -2.019990  0.048730 
H  4.667910 -1.792110 -0.014540 
H  3.247870 -1.181340 -0.038780 
O  2.432740  1.580540  2.407710 
H  3.104140  2.265370  2.471170 
H  2.708800  0.880360  3.055760 
O  3.244380 -0.425370  3.950270 
H  3.000820 -0.563020  4.869450 
H  2.971470 -1.252820  3.465520 
O  2.013290  0.220600  0.157030 
H  2.206100  0.794370  0.945250 
H  1.805540  0.815750 -0.569070 
O  0.107180 -1.546640  1.308230 
H -0.572680 -1.063650  1.786160 
H  0.623060 -0.872710  0.829310 


