#p b3lyp/6-31G scf=tight

H2O-8-S4

0 1
O -1.314570 -1.318060  0.132320
H -0.561920 -1.418770 -0.514720
H -1.729730 -2.182510  0.201560
O -0.237630  0.947500 -2.870780
H -0.152010  1.206100 -3.792850
H  0.287880  1.610830 -2.342890
O  1.093210  2.584080 -1.267600
H  1.702650  1.962540 -0.828230
H  0.459200  2.818310 -0.566840
O  0.730590 -1.345960 -1.549250
H  0.455110 -0.668450 -2.194220
H  1.458340 -0.919180 -1.063350
O  0.363220  0.237540  1.843640
H -0.243850 -0.433810  1.485250
H -0.106070  1.078370  1.688920
O -0.901960  2.514020  0.770040
H -1.514870  2.027840  0.150820
H -1.435260  3.181320  1.211320
O  2.308300  0.410380  0.052740
H  1.642790  0.338290  0.792280
H  3.176120  0.349630  0.462100
O -2.333320  1.081130 -0.934960
H -2.192690  0.182120 -0.583820
H -1.821140  1.087570 -1.762720

