#p b3lyp/6-31G scf=tight

H2O-11-Pr443

0 1
O -0.817360  0.686570 -1.815400 
H -0.685500  0.309700 -2.709040 
H -1.653840  0.293910 -1.498220 
O -2.034010  1.253400  2.685060 
H -2.650730  1.679990  2.063510 
H -2.207800  0.304570  2.560830 
O -0.542520 -0.966550 -3.988220 
H -1.096780 -1.633730 -3.529550 
H -0.826990 -0.958350 -4.905740 
O -3.289200 -0.307920 -0.770470 
H -3.187310 -0.729450  0.100010 
H -3.611200  0.583830 -0.545390 
O -2.146480 -2.512730 -2.343220 
H -2.779010 -1.848310 -2.030690 
H -1.669100 -2.765060 -1.535210 
O -0.891550 -2.762070  0.317020 
H -0.409030 -3.553960  0.573010 
H -0.209890 -2.026030  0.250230 
O  0.737400 -0.745510  0.042640 
H  0.738540 -0.049120  0.723680 
H  0.350950 -0.278970 -0.726260 
O -2.683110 -1.379830  1.842310 
H -2.027390 -1.992590  1.435550 
H -3.306630 -1.927740  2.328440 
O  0.351710  1.638640  1.565050 
H  0.982740  2.023760  2.180130 
H -0.493220  1.506730  2.071010 
O -1.168360  3.074140 -0.468740 
H -0.539270  2.813000  0.226170 
H -0.996290  2.410190 -1.164870 
O -3.516530  2.225530  0.414420 
H -4.187060  2.914380  0.390970 
H -2.677090  2.633490  0.057820 

