#p b3lyp/6-31G scf=tight

H2O-15-Pr555

0 1
O -1.459300 -1.190050 -5.331450 
H -1.883220 -1.380660 -6.173730 
H -1.497720 -0.214470 -5.215990 
O -2.196240 -1.603440 -2.546290 
H -2.318950 -1.592810 -3.507230 
H -1.304100 -2.002700 -2.441390 
O -1.522470  1.493800 -4.687690 
H -0.607320  1.801230 -4.431030 
H -1.859420  2.154160 -5.300680 
O -2.300920  0.658370  1.104810 
H -2.538040 -0.277960  0.926250 
H -2.419070  1.085060  0.242630 
O  2.075840 -0.823210 -1.337090 
H  2.621640 -0.635310 -2.117690 
H  1.550480  0.002120 -1.234550 
O -2.042280  1.064810 -1.805440 
H -2.120210  0.107920 -2.016600 
H -2.128280  1.488370 -2.672780 
O  0.294040  0.709360  1.621090 
H  0.448080  1.170910  2.451030 
H -0.697180  0.692330  1.497210 
O  1.260280 -2.047200 -4.888130 
H  1.055650 -2.549230 -4.079780 
H  0.381340 -1.755370 -5.187940 
O  0.315810 -2.726630 -2.292910
H  0.927370 -2.054350 -1.916810
H  0.129730 -3.325080 -1.547660
O  0.609750  1.500370 -1.095110
H  0.640860  1.542930 -0.123330
H -0.333520  1.323330 -1.302450
O -2.828280 -1.958950  0.297530
H -2.081250 -2.571730  0.410240
H -2.940490 -1.912660 -0.663680
O  1.371390 -1.920960  1.263780
H  0.973670 -1.071060  1.531890
H  1.897460 -1.680630  0.483640
O  2.656990  0.066830 -4.014650
H  2.171110 -0.708670 -4.403470
H  3.477180  0.142980 -4.511560
O  0.876140  2.270320 -3.876780
H  1.533150  1.567230 -4.043820
H  0.857680  2.322220 -2.906550
O -0.441050 -3.604960  0.281460
H -0.416800 -4.444140  0.750680
H  0.227770 -3.018800  0.725870

