#p b3lyp/6-31G scf=tight

H2O-8-D2d

0 1
O  1.363030 -1.364550  1.453860 
O -1.358000 -1.367950 -1.456430 
O  1.363350  1.362710 -1.453460 
O -1.359210  1.367660  1.457010 
H  1.475540 -1.474240  0.469780 
H -1.470630 -1.475100 -0.472110 
H  1.474420  1.473660 -0.469320 
H -1.471370  1.474730  0.472680 
H  1.974430 -1.978830  1.870030 
H -1.971120 -1.981630 -1.871030 
H  1.972660  1.979230 -1.869390 
H -1.970890  1.982910  1.871280 
O  1.466980 -1.463970 -1.197610 
O -1.461450 -1.461060  1.195660 
O  1.465440  1.463430  1.198010 
O -1.461460  1.460330 -1.195000 
H  0.538810 -1.615190 -1.451860 
H -0.532690 -1.610780  1.448850 
H  0.537050  1.613850  1.452120 
H  1.615620 -0.535360 -1.451610 
H -1.607420  0.530940 -1.447590 
H  1.613600  0.534480  1.450920 
H -1.609920 -0.532170  1.448550 
H -0.533010  1.612540 -1.447630 

