#p b3lyp/6-31G scf=tight

H2O-6-Cage

0 1
O -2.033430  0.818920  1.913320 
H -2.047440  1.319370  2.733030 
H -1.564890  1.374170  1.253080 
O -0.532240 -1.330550  1.004820 
H -1.122330 -0.720120  1.490340 
H  0.348320 -0.938850  1.122320 
O  1.804130  0.325810  0.589680 
H  2.038080 -0.123670 -0.254290 
H  2.628430  0.459360  1.065600 
O -0.751130 -0.681910 -1.554390 
H -1.461710 -1.135540 -2.016670 
H -0.775360 -1.006700 -0.610310 
O -0.526270  1.905300 -0.133230 
H -0.772010  1.274330 -0.827110 
H  0.357630  1.604970  0.135180 
O  1.967280 -1.043090 -1.762540 
H  2.350360 -0.688790 -2.569760 
H  0.994900 -1.007210 -1.886870 


