#p b3lyp/6-31G scf=tight

H2O-17-Pr454(4)

0 1
O  4.394720  1.337760 -1.772130
H  4.336440  0.775390 -0.951060
H  5.263820  1.749170 -1.765430
O  0.236240 -1.839040 -0.402150
H -0.184900 -1.518740 -1.226260
H  1.098290 -2.186680 -0.694980
O -1.124990  2.901200 -3.663120
H -1.436690  3.559640 -4.290970
H -0.863910  3.401190 -2.842420
O  1.753060  2.214500 -1.489640
H  2.725700  2.203690 -1.546370
H  1.469190  1.721340 -2.288420
O  0.923890  0.878230 -3.805030
H  0.331970  1.602200 -4.073490
H  0.314130  0.149140 -3.584260
O -3.149080 -0.257360  1.331030
H -2.744660 -1.155080  1.181430
H -3.520800 -0.284290  2.217970
O  3.975260 -0.245260  0.301890
H  3.716900 -1.075580 -0.136370
H  3.148630  0.062070  0.716490
O  3.391070 -0.702640 -3.487950
H  3.896060  0.003130 -3.044380
H  2.622410 -0.236220 -3.852460
O -0.958580 -0.912340 -2.765050
H -1.565790 -0.183140 -2.497040
H -1.557910 -1.669510 -2.876280
O -4.621590 -0.622020 -1.150610
H -4.362130 -0.513370 -0.219020
H -4.157060  0.113450 -1.585810
O  2.831580 -2.290410 -1.385550
H  2.992100 -1.763500 -2.213110
H  3.201920 -3.162690 -1.551870
O -0.395510  3.986110 -1.341790
H -0.903250  3.557030 -0.635560
H  0.481310  3.560330 -1.288220
O -2.175540 -2.676760  0.744450
H -2.556500 -2.896470 -0.122960
H -1.230210 -2.557870  0.539110
O -1.428920  1.818000  0.442500
H -0.544600  1.468370  0.663730
H -2.044000  1.229980  0.918400
O -3.090190 -2.669140 -2.028700
H -3.620210 -3.348800 -2.455630
H -3.724590 -1.953260 -1.762370
O -2.592060  1.143420 -2.008810
H -2.326820  1.813860 -2.664060
H -2.170890  1.421290 -1.166440
O  1.171310  0.591890  0.709130
H  0.834590 -0.265840  0.382180
H  1.383540  1.110360 -0.092370

