#p b3lyp/6-31G scf=tight

H2O-10-Prism

0 1
O -0.001380  0.752460  2.303590
H  0.142980 -0.130970  1.863010
H  0.382270  0.683780  3.182660
O -2.775270  0.522180  1.540950
H -1.938380  0.583280  2.032740
H -2.774000  1.350740  1.024760
O  0.190640 -1.554280  1.028860
H -0.722020 -1.772060  0.764630
H  0.633330 -1.423480  0.170810
O -1.751050 -0.524370 -2.589510
H -2.158410 -0.912860 -1.795090
H -0.821530 -0.784510 -2.495860
O  1.239050  1.656320 -1.894410
H  2.023240  2.094740 -2.237390
H  1.064160  2.059580 -0.993440
O -2.448170 -1.577960 -0.042540
H -2.662010 -0.793970  0.534370
H -3.153850 -2.216400  0.096130
O  0.979580 -1.032200 -1.633660
H  1.191650 -0.076860 -1.752120
H  1.664190 -1.523620 -2.096490
O  0.616450  2.724550  0.418270
H  0.580280  2.063400  1.136320
H -0.313620  3.007700  0.350380
O -1.622170  2.218160 -2.367720
H -1.795760  1.258310 -2.503010
H -0.655880  2.265100 -2.427280
O -2.217120  2.873020  0.109490
H -2.074350  2.643160 -0.853560
H -2.784720  3.649170  0.121530

