#p b3lyp/6-31G scf=tight

H2O-10-Butterfly

0 1
O -3.387150  0.864020  2.379180
H -3.572190  1.652270  2.896140
H -2.438240  0.671510  2.499340
O -1.937110 -1.916500 -0.828020
H -2.561770 -1.186780 -0.629380
H -1.306740 -1.503860 -1.443160
O -0.607290  1.589970 -0.229370
H -0.845980  1.003780  0.517220
H  0.238710  1.956810  0.063990
O -0.755090  0.051280  2.138150
H -0.709190 -0.910300  1.973880
H  0.179130  0.336530  2.161390
O -0.074980 -0.192290 -2.183440
H -0.252210  0.163660 -3.059300
H -0.299190  0.524470 -1.539540
O  1.749200  0.924740  1.386440
H  2.028950  0.338770  0.631320
H  2.557600  1.157780  1.850910
O -0.507310 -2.626800  1.234340
H -1.110290 -2.405430  0.463490
H -0.932920 -3.346110  1.711200
O -3.399270  0.431260 -0.375580
H -3.553630  0.625600  0.569830
H -2.834210  1.154300 -0.670200
O  1.773490 -3.243670 -0.331290
H  0.990730 -3.145140  0.244910
H  1.469670 -3.729240 -1.103800
O  2.381560 -0.548900 -0.742240
H  1.697270 -0.376010 -1.409440
H  2.305060 -1.512800 -0.594490

