#p b3lyp 6-311+g(3df,2p) scf=tight nosymm

aceton+

1    2
    C      0.00000000     -1.32489293     -0.15029035
    C      0.00000000      0.00000000      0.56595479
    O      0.00000000      0.00000000      1.77934695
    C      0.00000000      1.32489293     -0.15029035
    H      0.00000000     -2.15656890      0.54532876
    H      0.88773623     -1.33562296     -0.78384464
    H     -0.88773623     -1.33562296     -0.78384464
    H      0.88773623      1.33562296     -0.78384464
    H      0.00000000      2.15656890      0.54532876
    H     -0.88773623      1.33562296     -0.78384464
 
 
 
