#p b3lyp 6-311+g(3df,2p) scf=tight nosymm

c2h4

0    1
    C      0.66677372      0.00000000      0.00000000
    C     -0.66677372      0.00000000      0.00000000
    H      1.23029068     -0.92269622      0.00000000
    H      1.23029068      0.92269622      0.00000000
    H     -1.23029068     -0.92269622      0.00000000
    H     -1.23029068      0.92269622      0.00000000
 
 
 
