#p b3lyp 6-311+g(3df,2p) scf=tight nosymm

ethyl+

1    1
    C      0.00000000     -0.69092431     -0.15673025
    C      0.00000000      0.69092431     -0.15673025
    H      0.00000000      0.00000000      0.95635312
    H      0.93396303     -1.23977864     -0.16072315
    H     -0.93396303     -1.23977864     -0.16072315
    H      0.93396303      1.23977864     -0.16072315
    H     -0.93396303      1.23977864     -0.16072315
 
 
 
