#p b3lyp 6-311+g(3df,2p) scf=tight nosymm

ethyl

0    2
    C     -0.55536678     -0.28560395      0.00000000
    C      0.80048165      0.33374176      0.00000000
    H     -1.34545580      0.47415425      0.00000000
    H     -0.71187996     -0.90430192      0.88313334
    H     -0.71187996     -0.90430192     -0.88313334
    H      1.26205042      0.64315589      0.92293212
    H      1.26205042      0.64315589     -0.92293212
 
 
 
