#p b3lyp 6-311+g(3df,2p) scf=tight nosymm

h2o2+

1    2
    O      1.00692009     -0.10030062      0.00000000
    O     -1.00692009      0.10030062      0.00000000
    H      1.17077147      0.47145440      0.77499187
    H      1.17077147      0.47145440     -0.77499187
    H     -1.17077147     -0.47145440      0.77499187
    H     -1.17077147     -0.47145440     -0.77499187
 
 
 
