#p b3lyp 6-311+g(3df,2p) scf=tight nosymm

cbut

0    1
    N      0.00000000      0.00000000     -1.15437734
    B      0.00000000     -1.10500732      0.00000000
    N      0.00000000      0.00000000      1.15437734
    B      0.00000000      1.10500732      0.00000000
    H     -0.81662228      0.00000000     -1.74591904
    H      0.81662228      0.00000000     -1.74591904
    H     -1.01656604     -1.75295563      0.00000000
    H      1.01656604     -1.75295563      0.00000000
    H      0.81662228      0.00000000      1.74591904
    H     -0.81662228      0.00000000      1.74591904
    H     -1.01656604      1.75295563      0.00000000
    H      1.01656604      1.75295563      0.00000000
 
 
 
