#p b3lyp 6-311+g(3df,2p) scf=tight nosymm

ch

0    1
    B     -0.78188993      1.35427308     -0.20608268
    N     -1.47634475      0.00000000      0.22850918
    B     -0.78188993     -1.35427308     -0.20608268
    N      0.73817237     -1.27855206      0.22850918
    B      1.56377986      0.00000000     -0.20608268
    N      0.73817237      1.27855206      0.22850918
    H     -1.31777034      2.28244518      0.36647517
    H     -0.83210872      1.44125458     -1.40798065
    H     -1.67103996      0.00000000      1.22541058
    H     -2.39284746      0.00000000     -0.20633161
    H     -0.83210872     -1.44125458     -1.40798065
    H     -1.31777034     -2.28244518      0.36647517
    H      0.83551998     -1.44716306      1.22541058
    H      1.19642373     -2.07226669     -0.20633161
    H      1.66421744      0.00000000     -1.40798065
    H      2.63554068      0.00000000      0.36647517
    H      0.83551998      1.44716306      1.22541058
    H      1.19642373      2.07226669     -0.20633161
 
 
 
