#p b3lyp/6-31G scf=tight 

pccp22

0 1
 C   -0.7097741   -0.990423   1.2077018
 C   -1.406534   -0.9653529   0.
 C   -0.7097741   -0.990423   -1.2077018
 C   0.6839651   -1.0405105   -1.2078652
 C   1.3809779   -1.0655522   0.
 C   0.6839651   -1.0405105   1.2078652
 H   -1.2499482   -0.968628   2.1440507
 H   -2.4869197   -0.923706   0.
 H   -1.2499482   -0.968628   -2.1440507
 H   1.2242882   -1.0580753   -2.1442563
 H   2.4615886   -1.1029818   0.
 H   1.2242882   -1.0580753   2.1442563
 N   -0.0034118   3.5353926   0.
 C   0.0751963   2.370704   0.
 H   0.1476295   1.3052847   0.

