%nproc=8
%chk=bz2_s.chk
#P B3LYP/6-311+g(3df,2p) scf=tight iop(3/76=0500005000,5/33=1)

Estimated CCSD(T)/aug-cc-pVQZ* Level of Theory using Frozen Monomers 
(C-C=1.3915, C-H=1.0800), R(center-to-center)=3.9 Angstroms

0 1
C     -0.19367169    -1.37795628    0.000
H     -0.34398821    -2.44744445    0.000
C     -1.29018099    -0.52125353    0.000
H     -2.29154317    -0.92581969    0.000
C     -1.09650930     0.85670275    0.000
H     -1.94755496     1.52162475    0.000
C      0.19367169     1.37795628    0.000
H      0.34398821     2.44744445    0.000
C      1.29018099     0.52125353    0.000
H      2.29154317     0.92581969    0.000
C      1.09650930    -0.85670275    0.000
H      1.94755496    -1.52162475    0.000


