#p b3lyp/6-31G scf=tight

pccp21

0 1
 O   -1.4663316   1.0121693   0.
 C   -0.6281464   1.9142678   0.
 N   0.7205093   1.6882688   0.
 C   1.636729   2.7052764   0.
 C   1.2769036   4.0061763   0.
 C   -0.1286005   4.3621549   0.
 N   -0.977723   3.2396433   0.
 O   -0.5972229   5.4864066   0.
 H   2.0103504   4.7938642   0.
 H   1.0232515   0.706182   0.
 H   -1.9700268   3.432385   0.
 H   2.669062   2.3883417   0.
 O   1.4663316   -1.0121693   0.
 C   0.6281464   -1.9142678   0.
 N   -0.7205093   -1.6882688   0.
 C   -1.636729   -2.7052764   0.
 C   -1.2769036   -4.0061763   0.
 C   0.1286005   -4.3621549   0.
 N   0.977723   -3.2396433   0.
 O   0.5972229   -5.4864066   0.
 H   -2.0103504   -4.7938642   0.
 H   -1.0232515   -0.706182   0.
 H   1.9700268   -3.432385   0.
 H   -2.669062   -2.3883417   0.

