#p b3lyp 6-311+g(3df,2p) scf=tight nosymm

c2h4

0    1
    C      0.00000000      0.66240695      0.00000000
    C      0.00000000     -0.66240695      0.00000000
    H      0.92199393      1.23058091      0.00000000
    H      0.92199393     -1.23058091      0.00000000
    H     -0.92199393      1.23058091      0.00000000
    H     -0.92199393     -1.23058091      0.00000000
 
 
 
