#p b3lyp 6-311+g(3df,2p) scf=tight nosymm

o3_c2h4_ts

0    1
    O     -0.54727596     -1.77446476      0.00000000
    O      0.06658200     -1.41495679      1.05535992
    O      0.06658200     -1.41495679     -1.05535992
    C      0.06658200      0.68496206      0.68688495
    C      0.06658200      0.68496206     -0.68688495
    H     -0.84890294      0.82634205      1.24239591
    H     -0.84890294      0.82634205     -1.24239591
    H      0.98937693      0.79088505      1.23708391
    H      0.98937693      0.79088505     -1.23708391
 
 
 
