#p b3lyp 6-311+g(3df,2p) scf=tight nosymm

o3_c2h2_add

0    1
    O     -0.37313912     -1.60643931      0.00000000
    O      0.04075185     -0.85537237      1.13317392
    O      0.04075185     -0.85537237     -1.13317392
    C      0.04075185      0.43672254      0.66010895
    C      0.04075185      0.43672254     -0.66010895
    H      0.10506585      1.22186948      1.39052990
    H      0.10506585      1.22186948     -1.39052990
 
 
 
