#p b3lyp 6-311+g(3df,2p) scf=tight nosymm

o3_c2h2_vdw

0    1
    O      0.53042539     -1.88948158      0.00000000
    C     -0.08700157      1.34461119      0.60009796
    C     -0.08700157      1.34461119     -0.60009796
    H     -0.09120956      1.34866019     -1.66473288
    H     -0.09120956      1.34866019      1.66473288
    O     -0.08700157     -1.74853059      1.05955492
    O     -0.08700157     -1.74853059     -1.05955492
 
 
 
