#p b3lyp 6-311+g(3df,2p) scf=tight nosymm

444

0    1
    O      2.59032433     -2.72635136      1.13962163
    C      2.90032433     -1.79735136      0.42962162
    O      2.82632433     -1.86435136     -0.90337838
    H      3.10532433     -0.99535135     -1.28237838
    C      3.40132434     -0.46835135      0.98362162
    H      4.41232434     -0.29035135      0.61162162
    H      3.42332434     -0.54435135      2.06562163
    N      2.56232433      0.65664865      0.61362162
    H      1.89132433      1.05664865      1.26862163
    C      2.57632433      1.16864865     -0.62637838
    O      3.24632433      0.69264865     -1.55237838
    C      1.70032433      2.39764866     -0.81737838
    H      1.90232433      2.78764866     -1.80937838
    H      1.95932433      3.14664866     -0.06737838
    N      0.28732433      2.09464866     -0.71237838
    H     -0.33367568      2.14564866     -1.50837838
    C     -0.32567568      1.93664865      0.47162162
    O      0.27032433      1.91064865      1.55462163
    C     -1.84567568      1.82064865      0.39662162
    N     -2.29867568      1.80464865     -0.99337838
    H     -3.20367569      2.24764866     -1.07437838
    H     -2.41467568      0.84164865     -1.29837838
    H     -2.21067568      2.73664866      0.86562162
    C     -2.31967568      0.62464865      1.24562163
    H     -1.82367568      0.68164865      2.21362163
    H     -3.39467569      0.72764865      1.40562163
    C     -2.03267568     -0.68235135      0.56362162
    C     -3.00867569     -1.28335136     -0.24037838
    H     -3.99267569     -0.83435135     -0.30237838
    C     -2.73967568     -2.46235136     -0.93337838
    H     -3.50867569     -2.91535136     -1.54437838
    C     -1.48567568     -3.05735136     -0.82837838
    H     -1.27367568     -3.97535136     -1.35937838
    C     -0.50567568     -2.47835136     -0.02237838
    H      0.46232433     -2.94835136      0.08262162
    C     -0.77867568     -1.29635136      0.66262162
    H     -0.02067568     -0.85935135      1.30162163
 
 
 
