#p b3lyp 6-311+g(3df,2p) scf=tight nosymm

07_MeOH-Peptide_1_y_+30

0    1
    O      0.95245631      0.16519578     -0.08636954
    H      0.00000000      0.00000000      0.00000000
    C      1.39062207     -0.56587022     -1.21095267
    H      2.45344085     -0.37371974     -1.33590575
    H      1.25416139     -1.64309268     -1.08899313
    H      0.88359256     -0.26236410     -2.13170015
 
 
 
