#p b3lyp 6-311+g(3df,2p) scf=tight nosymm

08_MeOH-Water_2_y_-30

0    1
    O     -2.95002633     -0.00082255     -0.00068712
    H     -1.98521145      0.00000000     -0.00000000
    C     -3.36739540      1.34907361      0.00000000
    H     -4.45412718      1.35333597     -0.00027378
    H     -3.02813848      1.89153543      0.88569549
    H     -3.02767129      1.89261044     -0.88486244
 
 
 
