#p b3lyp 6-311+g(3df,2p) scf=tight nosymm

20_AcOH-AcOH_2_z_+30

0    1
    C     -2.77581770      0.10590206      0.00035565
    O     -2.06615549      1.10399458      0.00000000
    O     -2.31095628     -1.13325520     -0.00014103
    H     -1.31699886     -1.10399458      0.00000000
    C     -4.27224476      0.16015481      0.00333229
    H     -4.60365573      1.19114822     -0.01498987
    H     -4.65552556     -0.37662612     -0.86103836
    H     -4.64841302     -0.34084207      0.89224863
 
 
 
