#p b3lyp 6-311+g(3df,2p) scf=tight nosymm

22_AcOH-Uracil_2_y_+30

0    1
    C     -2.82316614      0.07908336     -0.00143423
    O     -2.15174910      1.10237217      0.00676747
    O     -2.31697031     -1.14472990     -0.00892873
    H     -1.32423198     -1.10237217     -0.00676747
    C     -4.32151567      0.07548138     -0.00429758
    H     -4.69233391      1.09313851      0.00301400
    H     -4.67997123     -0.45051022     -0.88594306
    H     -4.68348819     -0.46453293      0.86736911
 
 
 
