#p b3lyp 6-311+g(3df,2p) scf=tight nosymm

23_AcNH2-Uracil_1_z_+30

0    1
    C      1.11675516      0.15328925      0.00451777
    O      0.43782298      1.18524043     -0.03140120
    N      0.57506307     -1.07550946      0.03773223
    H     -0.43782298     -1.18524043      0.03140120
    H      1.16244371     -1.88618679      0.06629227
    C      2.62133356      0.23105964      0.00914343
    H      2.94319208      0.72823300     -0.90259774
    H      3.10201377     -0.74089083      0.07803337
    H      2.93195443      0.84883291      0.84764462
 
 
 
