#p b3lyp 6-311+g(3df,2p) scf=tight nosymm

24_Benzene-Benzene_pi-pi_1_y_+30

0    1
    C     -0.34630624      1.16349320     -0.68356587
    H     -0.61996171      2.06501321     -1.21468843
    C     -0.59042937      1.06144469      0.68418760
    H     -1.05846904      1.88053799      1.21264496
    C     -0.24253927     -0.10174791      1.36799543
    H     -0.43456424     -0.18176247      2.42945217
    C      0.34713219     -1.16339311      0.68437984
    H      0.61709628     -2.06610972      1.21580333
    C      0.58905348     -1.06200411     -0.68466474
    H      1.04782936     -1.88534556     -1.21552612
    C      0.24429566      0.10264177     -1.36812391
    H      0.43369311      0.18248867     -2.43016870
 
 
 
