#p b3lyp 6-311+g(3df,2p) scf=tight nosymm

26_Uracil-Uracil_pi-pi_1_y_+30

0    1
    N     -0.08326113      0.23512302     -0.91450899
    H     -0.31064008      0.51332645     -1.86177709
    C     -0.04508768     -1.14224124     -0.66270325
    O     -0.23159647     -1.94485242     -1.56473787
    N      0.19274653      0.83938717      1.29214319
    H      0.28772083     -2.50289334      1.01191426
    C      0.29464387     -0.47862572      1.64219832
    H      0.44441245     -0.66951374      2.69425609
    C      0.20726920     -1.46768142      0.72877299
    H      0.14091805      1.55709449      1.99705275
    C     -0.04355028      1.26986533     -0.00000000
    O     -0.20992845      2.43887142     -0.29026084
 
 
 
