#p b3lyp 6-311+g(3df,2p) scf=tight nosymm

27_Benzene-Pyridine_pi-pi_1_z_+30

0    1
    C     -0.11587643      0.05192952     -1.38749749
    H     -0.20497929      0.09158447     -2.46489807
    C      0.43403345      1.12847653     -0.69417173
    H      0.77393720      2.00269571     -1.23307303
    C      0.55211829      1.07569563      0.69417173
    H      0.98413651      1.90871051      1.23236400
    C      0.11839162     -0.05269075      1.38724045
    H      0.21027354     -0.09438381      2.46425282
    C     -0.43663373     -1.12766463      0.69386470
    H     -0.78494012     -1.99840697      1.23208468
    C     -0.55156311     -1.07585566     -0.69361039
    H     -0.98402939     -1.90889689     -1.23069791
 
 
 
