#p b3lyp 6-311+g(3df,2p) scf=tight nosymm

28_Benzene-Uracil_pi-pi_1_y_-30

0    1
    C      0.15078632      0.68048606      1.20847218
    H      0.25402531      1.20984160      2.14524296
    C     -0.17099913     -0.67530525      1.20796270
    H     -0.30991027     -1.19661155      2.14529585
    C     -0.32053084     -1.35574007      0.00000030
    H     -0.56628447     -2.40946981      0.00140803
    C     -0.14972151     -0.68058066     -1.20790686
    H     -0.26765934     -1.20582196     -2.14606652
    C      0.17022215      0.67606745     -1.20855256
    H      0.29074094      1.20123132     -2.14575888
    C      0.32237103      1.35456769     -0.00000000
    H      0.57373014      2.40684544      0.00016729
 
 
 
