#p b3lyp 6-311+g(3df,2p) scf=tight nosymm

29_Pyridine-Uracil_pi-pi_2_y_+30

0    1
    N     -2.96296007     -1.34610766      0.00026841
    C     -3.25176773     -0.69634675      1.13751040
    H     -3.17378745     -1.27413960      2.04975780
    C     -3.62139374      0.64544970      1.18917528
    H     -3.83270501      1.10946700      2.14194627
    C     -3.70148792      1.36320864     -0.00000000
    H     -3.98102947      2.40778569     -0.00040223
    C     -3.40945181      0.70487490     -1.19018146
    H     -3.44535297      1.21930706     -2.13942027
    C     -3.04916539     -0.63916464     -1.13713798
    H     -2.81721908     -1.17699328     -2.04805940
 
 
 
