#p b3lyp 6-311+g(3df,2p) scf=tight nosymm

37_Cyclopentane-Neopentane_2_y_-30

0    1
    C     -4.95136283     -0.37923179     -1.18716033
    H     -6.03896599     -0.38823650     -1.28081663
    H     -4.53583099     -0.70230647     -2.14066723
    C     -4.47003371      1.02087418     -0.77242971
    H     -5.10216650      1.80659477     -1.18170429
    H     -3.46337463      1.19524576     -1.15156723
    C     -4.46491449      1.01831468      0.77747509
    H     -5.12577555      1.77801029      1.19044444
    H     -3.46477988      1.23288953      1.15262285
    C     -4.89775812     -0.39943494      1.19426516
    H     -5.97762468     -0.42931535      1.34974876
    H     -4.42428480     -0.72912136      2.11799959
    C     -4.54418262     -1.26729972     -0.01277628
    H     -5.04527188     -2.23430943     -0.00882383
    H     -3.46787041     -1.44868896     -0.03977598
 
 
 
