#p b3lyp 6-311+g(3df,2p) scf=tight nosymm

38_Cyclopentane-Cyclopentane_2_z_+30

0    1
    C     -4.07694610      1.28579828      0.00000000
    H     -4.93945513      1.94562917      0.08441598
    H     -3.19738013      1.92225070     -0.07989448
    C     -4.00447656      0.33915948      1.22612961
    H     -4.86156392      0.50539454      1.87799770
    H     -3.11134878      0.50528862      1.82613393
    C     -4.05870120     -1.08437906      0.65047495
    H     -4.50908697     -1.80028525      1.33624028
    H     -3.05056710     -1.43577636      0.42124062
    C     -4.83454274     -0.91372978     -0.65406377
    H     -5.89416142     -0.75979591     -0.43637061
    H     -4.74960264     -1.76806155     -1.32415239
    C     -4.22884748      0.36731027     -1.22610685
    H     -4.82853717      0.81593487     -2.01632047
    H     -3.24798424      0.13902078     -1.64679706
 
 
 
