#p b3lyp 6-311+g(3df,2p) scf=tight nosymm

39_Benzene-Cyclopentane_1_z_-30

0    1
    C     -0.43814049     -1.32303806     -0.00017976
    H     -0.77620098     -2.35053745     -0.00036914
    C     -0.32793570     -0.62556641     -1.20182239
    H     -0.58120459     -1.11159820     -2.13440044
    C      0.10969064      0.69774771     -1.20166175
    H      0.19442327      1.23942759     -2.13393124
    C      0.43795216      1.32314805      0.00000161
    H      0.77651844      2.35020793     -0.00000000
    C      0.32842623      0.62540360      1.20186364
    H      0.58257479      1.11089111      2.13420885
    C     -0.11009465     -0.69760281      1.20183382
    H     -0.19489787     -1.23948803      2.13407283
 
 
 
