#p b3lyp 6-311+g(3df,2p) scf=tight nosymm

40_Benzene-Neopentane_1_y_-30

0    1
    C      0.08186219     -1.39144625      0.00001072
    H      0.14628310     -2.47120831      0.00003659
    C      0.03997760     -0.69569263     -1.20721012
    H      0.07101373     -1.23545287     -2.14394710
    C     -0.04161680      0.69565717     -1.20711847
    H     -0.07464775      1.23535337     -2.14369223
    C     -0.08142538      1.39135101     -0.00001072
    H     -0.14637492      2.47080820     -0.00000000
    C     -0.04011488      0.69575377      1.20712437
    H     -0.07308107      1.23543387      2.14370232
    C      0.04158728     -0.69559290      1.20720015
    H      0.07358943     -1.23529390      2.14394887
 
 
 
