#p b3lyp 6-311+g(3df,2p) scf=tight nosymm

42_Uracil-Cyclopentane_2_z_-30

0    1
    N     -3.55734662     -0.91522532      0.03030527
    H     -3.30774350     -1.89500596      0.03735843
    C     -3.66855909     -0.29900472      1.28549724
    O     -3.47154683     -0.93517443      2.30628785
    C     -4.02269255      1.10746513      1.20516116
    H     -4.13313347      1.66639768      2.11823395
    C     -4.20880336      1.68309417     -0.00000000
    H     -4.47238643      2.72429524     -0.11134963
    N     -4.07013268      0.98103344     -1.16805725
    H     -4.19912495      1.42495520     -2.06203204
    C     -3.72673421     -0.35955699     -1.22068719
    O     -3.58979358     -0.96991656     -2.26248098
 
 
 
