#p b3lyp 6-311+g(3df,2p) scf=tight nosymm

44_Ethene-Pentane_1_z_+30

0    1
    C     -0.00004119      0.66618869      0.00000000
    H     -0.79823181      1.22838153      0.46330871
    H      0.79903628      1.22811183     -0.46211415
    C     -0.00007040     -0.66618553     -0.00015822
    H     -0.79836414     -1.22842253      0.46308389
    H      0.79888932     -1.22810848     -0.46239310
 
 
 
