#p b3lyp 6-311+g(3df,2p) scf=tight nosymm

46_Peptide-Pentane_1_y_+30

0    1
    C     -0.25275624      1.06606814      1.54416992
    H     -0.33857438      2.07669079      1.15082954
    H      0.61866379      1.01210593      2.19424056
    H     -1.12855042      0.83471348      2.14370370
    C     -0.11648535      0.01424118      0.46865252
    O     -0.25356193     -1.17863823      0.70806040
    N      0.17993924      0.49297371     -0.77131981
    H      0.30189763      1.48288781     -0.88117614
    C      0.42223637     -0.38279755     -1.89620933
    H      0.23201968     -1.39607380     -1.55614155
    H     -0.24621424     -0.15100243     -2.72303269
    H      1.45364063     -0.31253800     -2.23872627
 
 
 
