#p b3lyp 6-311+g(3df,2p) scf=tight nosymm

48_Pyridine-Pyridine_TS_1_y_-30

0    1
    N     -0.03694286     -1.39359517      0.00000761
    C     -0.02033512     -0.69194767     -1.14200660
    H     -0.03951010     -1.27296190     -2.05574787
    C      0.01677595      0.69941082     -1.19442928
    H      0.02776438      1.20500527     -2.14948564
    C      0.03810266      1.41264648     -0.00000000
    H      0.06753276      2.49344354      0.00006231
    C      0.02065977      0.69927067      1.19441562
    H      0.03470044      1.20479096      2.14947011
    C     -0.01691116     -0.69200337      1.14200591
    H     -0.03340651     -1.27306505      2.05576652
 
 
 
