#p b3lyp 6-311+g(3df,2p) scf=tight nosymm

48_Pyridine-Pyridine_TS_2_z_-30

0    1
    N     -2.53725765     -1.39359517     -0.00000761
    C     -2.55386539     -0.69194767      1.14200660
    H     -2.53469041     -1.27296190      2.05574787
    C     -2.59097646      0.69941082      1.19442928
    H     -2.60196489      1.20500527      2.14948564
    C     -2.61230317      1.41264648     -0.00000000
    H     -2.64173327      2.49344354     -0.00006231
    C     -2.59486028      0.69927067     -1.19441562
    H     -2.60890095      1.20479096     -2.14947011
    C     -2.55728935     -0.69200337     -1.14200591
    H     -2.54079400     -1.27306505     -2.05576652
 
 
 
