#p b3lyp 6-311+g(3df,2p) scf=tight nosymm

49_Benzene-Pyridine_TS_1_z_-30

0    1
    C      0.05501531      1.19524262      0.71535551
    H      0.10030240      2.12196101      1.27120780
    C     -0.00793044     -0.02079865      1.39408463
    H     -0.01523328     -0.03674450      2.47528226
    C     -0.06106286     -1.21627642      0.67865542
    H     -0.10765733     -2.15965929      1.20533400
    C     -0.05409785     -1.19532997     -0.71542263
    H     -0.09530426     -2.12248588     -1.27060594
    C      0.00591774      0.02103934     -1.39405121
    H      0.00914613      0.03757495     -2.47526534
    C      0.06187576      1.21614311     -0.67862166
    H      0.11211074      2.15911501     -1.20595349
 
 
 
