#p b3lyp 6-311+g(3df,2p) scf=tight nosymm

52_Benzene-AcOH_OH-pi_1_y_-30

0    1
    C      0.04868042      0.69782353     -1.20697577
    H      0.05198619      0.15611512     -2.14270698
    C      0.08101621      2.09196921     -1.20677651
    H      0.11249030      2.63203152     -2.14298957
    C      0.06560898      2.78958018      0.00012837
    H      0.08417276      3.87060077      0.00000000
    C      0.02190731      2.09322325      1.20716819
    H      0.00726846      2.63429579      2.14321434
    C     -0.01079813      0.69911747      1.20731408
    H     -0.05461004      0.15804549      2.14235590
    C      0.00000000      0.00000000      0.00000000
    H     -0.04795279     -1.07940794     -0.00001960
 
 
 
