#p b3lyp 6-311+g(3df,2p) scf=tight nosymm

57_Benzene-Peptide_NH-pi_2_z_+30

0    1
    C     -2.31556955      1.32579990     -0.42928166
    H     -2.27327745      2.35376309     -0.76230218
    C     -2.44440151      0.29605065     -1.36071003
    H     -2.49934308      0.52567993     -2.41581833
    C     -2.50089941     -1.02909552     -0.93154141
    H     -2.60234258     -1.82728229     -1.65392742
    C     -2.42552255     -1.32566962      0.42884995
    H     -2.46976634     -2.35364179      0.76166730
    C     -2.29416080     -0.29671210      1.36083960
    H     -2.23498973     -0.52635683      2.41585081
    C     -2.24064309      1.02962701      0.93180178
    H     -2.14297373      1.82783409      1.65502758
 
 
 
