#p b3lyp 6-311+g(3df,2p) scf=tight nosymm

60_Ethyne-AcOH_OH-pi_1_y_+30

0    1
    C     -0.11438267     -0.59566805     -0.00000525
    H     -0.36371482     -1.63011710     -0.00006033
    C      0.11438267      0.59566805      0.00000525
    H      0.33426782      1.63480569      0.00000000
 
 
 
