#p b3lyp 6-311+g(3df,2p) scf=tight nosymm

60_Ethyne-AcOH_OH-pi_2_z_-30

0    1
    C     -2.22798374     -0.59566805      0.00000525
    H     -1.97865159     -1.63011710      0.00006033
    C     -2.45674907      0.59566805     -0.00000525
    H     -2.67663422      1.63480569      0.00000000
 
 
 
