#p b3lyp 6-311+g(3df,2p) scf=tight nosymm

63_Benzene-AcOH_2_z_-30

0    1
    C     -3.37168851     -0.70603722      1.19676005
    H     -3.28706506     -1.25363899      2.12547291
    C     -3.26940215      0.68405967      1.19776059
    H     -3.09616584      1.21358310      2.12411233
    C     -3.37644686      1.38964408      0.00036400
    H     -3.29680030      2.46810796     -0.00000000
    C     -3.58223628      0.70655835     -1.19737508
    H     -3.66185320      1.25501934     -2.12601323
    C     -3.68390001     -0.68403295     -1.19750877
    H     -3.84541650     -1.21440138     -2.12609478
    C     -3.57972729     -1.39018642      0.00016955
    H     -3.66011262     -2.46873581      0.00049284
 
 
 
