#p b3lyp 6-311+g(3df,2p) scf=tight nosymm

63_Benzene-AcOH_1_z_+30

0    1
    C     -0.10533870     -0.70603722     -1.19676005
    H     -0.18996216     -1.25363899     -2.12547291
    C     -0.20762507      0.68405967     -1.19776059
    H     -0.38086138      1.21358310     -2.12411233
    C     -0.10058035      1.38964408     -0.00036400
    H     -0.18022692      2.46810796      0.00000000
    C      0.10520906      0.70655835      1.19737508
    H      0.18482599      1.25501934      2.12601323
    C      0.20687279     -0.68403295      1.19750877
    H      0.36838928     -1.21440138      2.12609478
    C      0.10270008     -1.39018642     -0.00016955
    H      0.18308540     -2.46873581     -0.00049284
 
 
 
