#p b3lyp 6-311+g(3df,2p) scf=tight nosymm

65_Pyridine-Ethyne_1_y_-30

0    1
    N      0.00000000      0.00000000      0.00000000
    C      0.69654419      1.14491094      0.00000000
    H      0.11228471      2.05568355     -0.04506045
    C      2.08628744      1.20051155      0.05393479
    H      2.59010798      2.15636402      0.05132640
    C      2.80075313      0.00851164      0.11103472
    H      3.88099184      0.01179136      0.15322902
    C      2.09117552     -1.18778276      0.11253986
    H      2.59899038     -2.14048352      0.15672388
    C      0.70123884     -1.14063972      0.05615145
    H      0.12077099     -2.05488219      0.05599065
 
 
 
