#p b3lyp 6-311+g(3df,2p) scf=tight nosymm

1

0    1
    C     -0.40419597      0.41478561     -0.19881560
    C      0.89174192      0.31803273     -0.99717679
    N     -0.28576819      1.02114608      1.12437546
    H      0.60890070      0.75941411      1.53230808
    H     -0.32483326      2.03075657      1.07473266
    H     -1.12338016      1.00148859     -0.77807991
    C     -1.03322898     -0.97751314     -0.06126029
    O     -0.98219798     -1.81140766     -0.93643764
    O     -1.65961594     -1.17364669      1.10319173
    H     -1.47902652     -0.35161223      1.61424932
    H      0.70777982     -0.15422137     -1.95897781
    H      1.29967419      1.31467141     -1.16511681
    S      2.18357014     -0.59794168     -0.11154660
    H      1.60058023     -1.79395232     -0.24144580
 
 
 
