#p b3lyp 6-311+g(3df,2p) scf=tight nosymm

11

0    1
    C     -0.33836629      0.47721962     -0.29082486
    C      0.94800015      0.19788908     -1.06053306
    N     -0.05881088      1.24770594      0.90526874
    H      0.41677702      0.65525642      1.57777904
    H     -0.92453416      1.53231786      1.34735846
    H     -0.97936030      1.07945991     -0.94220152
    C     -1.08162315     -0.84186899     -0.10359916
    O     -1.25559635     -1.65387260     -0.98494132
    O     -1.55725568     -1.00430979      1.15142978
    H     -2.01272706     -1.86183117      1.14787484
    H      0.72529837     -0.39067055     -1.94800970
    H      1.41130429      1.13588334     -1.35552704
    S      2.13598742     -0.78807300     -0.10532297
    H      2.57090664      0.21489392      0.66124877
 
 
 
