#p b3lyp 6-311+g(3df,2p) scf=tight nosymm

2

0    1
    C     -0.22810118     -0.18409823      0.31291371
    C      0.91731482      0.79587374      0.05914171
    N     -0.19356703     -1.26402658     -0.66771900
    H     -0.66377443     -2.08956148     -0.31460599
    H      0.77180499     -1.52640847     -0.84626774
    H     -0.17981795     -0.52058330      1.35151056
    C     -1.52097311      0.61929942      0.15892513
    O     -1.92055095      1.38423283      1.00419830
    O     -2.13162863      0.43816194     -1.02124355
    H     -1.59341480     -0.25225518     -1.47030719
    H      0.85363471      1.17675509     -0.96199939
    H      0.83642470      1.63612348      0.74438769
    S      2.56087795      0.04024452      0.17479338
    H      2.49177090     -0.25375778      1.47627238
 
 
 
