#p b3lyp 6-311+g(3df,2p) scf=tight nosymm

6

0    1
    C     -0.48947239      0.32264831     -0.11317769
    C      0.58948249      0.18973217     -1.18263030
    N     -0.04483690      0.79387015      1.19473864
    H      0.05088003      1.80084743      1.21657600
    H      0.86005365      0.38433965      1.41182936
    H     -1.24884781      1.02018254     -0.47912985
    C     -1.22052273     -1.01726822      0.05154630
    O     -1.44271525     -1.76116902     -0.87445868
    O     -1.62396594     -1.26316091      1.30364336
    H     -1.26828322     -0.51167236      1.82738863
    H      0.15510679     -0.26528371     -2.07024748
    H      0.99770771      1.16211562     -1.45019482
    S      1.94556225     -0.90450657     -0.66325350
    H      2.73985132      0.04932491     -0.17262998
 
 
 
