#p b3lyp 6-311+g(3df,2p) scf=tight nosymm

7

0    1
    C     -0.28094477      0.58253532     -0.21836024
    C      1.01440191      0.39656448     -0.99556883
    N     -0.04183652      1.37393226      0.97480525
    H      0.64035086      0.89371685      1.55400340
    H     -0.89066468      1.45621373      1.52076499
    H     -0.97303960      1.14053634     -0.85969206
    C     -0.94930420     -0.76952473     -0.00139434
    O     -0.77804099     -1.75440784     -0.68695650
    O     -1.81260842     -0.74588124      1.04027957
    H     -2.21581213     -1.62827143      1.07124943
    H      0.83523989     -0.11980428     -1.93448416
    H      1.43714706      1.37839128     -1.20016665
    S      2.28650915     -0.49969060     -0.05900257
    H      1.72860243     -1.70431014     -0.20547728
 
 
 
