#p b3lyp 6-311+g(3df,2p) scf=tight nosymm

AD2

0    1
    C      0.68416019      0.33775110     -1.91148254
    C     -0.68416019     -0.33775110     -1.91148254
    H      1.48964542     -0.40143411     -1.91148254
    H      0.81277323      0.96966027     -2.79429179
    H      0.81277323      0.96966027     -1.02867329
    H     -1.48964542      0.40143411     -1.91148254
    H     -0.81277323     -0.96966027     -2.79429179
    H     -0.81277323     -0.96966027     -1.02867329
    C      0.68416019     -0.33775110      1.91148254
    C     -0.68416019      0.33775110      1.91148254
    H      1.48964542      0.40143411      1.91148254
    H      0.81277323     -0.96966027      2.79429179
    H      0.81277323     -0.96966027      1.02867329
    H     -1.48964542     -0.40143411      1.91148254
    H     -0.81277323      0.96966027      2.79429179
    H     -0.81277323      0.96966027      1.02867329
 
 
 
