#p b3lyp 6-311+g(3df,2p) scf=tight nosymm

AM4

0    1
    C      0.62324918      0.44075812      0.00000000
    C     -0.62324918     -0.44075812      0.00000000
    C      1.91958754     -0.36472010      0.00000000
    C     -1.91958754      0.36472010      0.00000000
    H      0.59762917      1.09858231      0.87793839
    H      0.59762917      1.09858231     -0.87793839
    H     -0.59762917     -1.09858231      0.87793839
    H     -0.59762917     -1.09858231     -0.87793839
    H      2.79738679      0.28809108      0.00000000
    H      1.97878756     -1.00728329      0.88401439
    H      1.97878756     -1.00728329     -0.88401439
    H     -2.79738679     -0.28809108      0.00000000
    H     -1.97878756      1.00728329      0.88401439
    H     -1.97878756      1.00728329     -0.88401439
 
 
 
