#p b3lyp 6-311+g(3df,2p) scf=tight nosymm

AM5

0    1
    C      0.00000000      0.00000000      0.28905385
    C      0.00000000      1.27595736     -0.54941939
    C      0.00000000     -1.27595736     -0.54941939
    C      0.00000000      2.54341372      0.30116585
    C      0.00000000     -2.54341372      0.30116585
    H      0.87872925      0.00000000      0.94851403
    H     -0.87872925      0.00000000      0.94851403
    H      0.87801025      1.27393336     -1.20751758
    H     -0.87801025      1.27393336     -1.20751758
    H      0.87801025     -1.27393336     -1.20751758
    H     -0.87801025     -1.27393336     -1.20751758
    H      0.88402525      2.57989873      0.94538103
    H     -0.88402525      2.57989873      0.94538103
    H      0.00000000      3.44361698     -0.32051433
    H      0.88402525     -2.57989873      0.94538103
    H     -0.88402525     -2.57989873      0.94538103
    H      0.00000000     -3.44361698     -0.32051433
 
 
 
