#p b3lyp 6-311+g(3df,2p) scf=tight nosymm

AM6

0    1
    C      0.64555118     -0.40756312      0.00000000
    C     -0.64555118      0.40756312      0.00000000
    C      1.90524454      0.45554813      0.00000000
    C     -1.90524454     -0.45554813      0.00000000
    C      3.18887190     -0.37045910      0.00000000
    C     -3.18887190      0.37045910      0.00000000
    H      0.65879119     -1.06667830      0.87879605
    H      0.65879119     -1.06667830     -0.87879605
    H     -0.65879119      1.06667830      0.87879605
    H     -0.65879119      1.06667830     -0.87879605
    H      1.89040954      1.11346232     -0.87800845
    H      1.89040954      1.11346232      0.87800845
    H     -1.89040954     -1.11346232     -0.87800845
    H     -1.89040954     -1.11346232      0.87800845
    H      4.07689716      0.26853008      0.00000000
    H      3.23778692     -1.01383029     -0.88404845
    H      3.23778692     -1.01383029      0.88404845
    H     -4.07689716     -0.26853008      0.00000000
    H     -3.23778692      1.01383029     -0.88404845
    H     -3.23778692      1.01383029      0.88404845
 
 
 
