#p b3lyp/6-31G scf=tight

pccp17

0 1
 C   -1.2471894   -1.1718212   -0.6961388
 C   -1.2471894   -1.1718212   0.6961388
 N   -0.258951   -1.7235771   1.4144796
 C   0.7315327   -2.2652221   0.6967288
 C   0.7315327   -2.2652221   -0.6967288
 N   -0.258951   -1.7235771   -1.4144796
 H   -2.0634363   -0.7223199   -1.2472797
 H   -2.0634363   -0.7223199   1.2472797
 H   1.5488004   -2.7128282   1.2475604
 H   1.5488004   -2.7128282   -1.2475604
 C   -0.3380031   2.0800608   1.1300452
 C   0.8540254   1.3593471   1.1306308
 N   1.4701787   0.9907598   0.
 C   0.8540254   1.3593471   -1.1306308
 C   -0.3380031   2.0800608   -1.1300452
 N   -0.9523059   2.4528836   0.
 H   -0.8103758   2.3643033   2.0618643
 H   1.3208583   1.067061   2.0623986
 H   1.3208583   1.067061   -2.0623986
 H   -0.8103758   2.3643033   -2.0618643

