#p b3lyp 6-311+g(3df,2p) scf=tight nosymm

003

0    2
    N     -0.45457557      1.88646561      0.02258890
   Li     -0.82480554     -1.65072320     -0.21468702
    B     -0.80719527      0.40027191      0.26380587
    H     -1.78073397     -0.03153834     -0.38555827
    C      0.54428315      1.19783418     -0.28653586
    H      1.00967859     -1.15211357     -0.70168688
    H      1.49969099     -0.36603311      1.14493243
    B      0.81365762     -0.28416347      0.15714084
 
 
 
