#p b3lyp 6-311+g(3df,2p) scf=tight nosymm

004

0    1
    H      1.43633752      0.37500228     -1.12526005
    H      1.43030721     -0.40262646     -1.12436681
    S      0.07618536     -0.00574066      1.51548755
    H     -0.77518727      1.00582813      1.83317082
    H     -0.55164256     -1.29768345     -1.08049624
   Be     -0.24553066     -0.00166173     -0.75458911
    H     -0.83265267     -0.96849943      1.82435603
    H     -0.53781694      1.29538133     -1.08830219
 
 
 
