#p b3lyp 6-311+g(3df,2p) scf=tight nosymm

005

0    2
   Be      0.24548707     -0.45602758     -0.67036590
    H     -0.40853020      2.10696818      2.82147528
    N      0.20370849     -0.72642358      0.81521319
    H      0.40089724     -1.62181759      1.25140595
    H      0.33030831      2.00430663      2.72160668
   Cl      0.29695983     -0.12936017     -2.47032407
    H     -0.02696933     -0.03748908      1.52485070
    H     -1.04186142     -1.14015681     -5.99386184
 
 
 
