#p b3lyp 6-311+g(3df,2p) scf=tight nosymm

007

0    2
    H     -0.07266832      1.38198373      2.03911370
    H      0.25962657      1.73616245      1.46488099
    H      0.13121111     -1.94046160      1.36126797
    H     -0.95008909     -0.76345332     -0.53284625
    H      0.03978039     -3.00973725     -0.87401267
    H      0.24315059      2.51508214     -1.77330282
   Si      0.13780608     -1.71352256     -0.12265894
    H      0.21118267      1.79394641     -1.56244198
 
 
 
