#p b3lyp 6-311+g(3df,2p) scf=tight nosymm

009

0    2
    H      0.49949456     -2.61801476     -0.01070131
   Be     -0.47984007     -1.43417504     -0.02241873
    H      1.05255900     -1.97249159      0.02163322
   Al     -0.14403210      2.66464263     -0.01112834
    B     -0.21472174      0.40071107      0.00660712
    H      0.41268168      0.83659036     -0.98355084
    H      0.39818370      0.83640193      1.00360210
    F     -1.52432503      1.28633540     -0.00404323
 
 
 
