#p b3lyp 6-311+g(3df,2p) scf=tight nosymm

010

0    1
    H     -0.40327749     -1.77603540     -0.37595446
    H     -0.81192016      0.07304870      1.94672517
    H      1.02944513      1.06029733     -2.35863304
    H     -1.37496952      0.57024244      2.17084589
    O     -0.11473399     -0.85034720     -0.42610060
    O      0.65718440     -0.73038564      0.87922715
    H      0.82323557      0.39122532     -2.06146246
   Na      0.19503605      1.26195445      0.22535235
 
 
 
