#p b3lyp 6-311+g(3df,2p) scf=tight nosymm

012

0    1
    H      0.01596254     -2.65011200     -0.47877734
    H     -0.85071766      0.85397212     -0.87996664
    H      0.04463442     -2.85926842      0.24323966
    H      1.11772432      1.21819218     -0.59498669
    H     -0.31198296     -0.04062323      0.30443077
    H     -0.33874614      2.03467309      0.68010903
    H      0.30183675      0.24475926      0.82993822
    B      0.02128872      1.19840700     -0.10398701
 
 
 
