#p b3lyp 6-311+g(3df,2p) scf=tight nosymm

013

0    2
    H     -0.16867734     -2.96540534      1.29046084
   Be     -0.04167839     -1.35072730     -1.24643521
    H     -0.17892498     -2.61188727      1.95520911
    P     -0.03501207      0.68235245     -0.91028225
    H      0.87944829      0.48883813      0.19607709
    H     -0.06475380     -2.66781229     -1.51726510
    H     -0.16874332      4.55153861      0.27701131
    H     -0.22165839      3.87310301     -0.04477580
 
 
 
