#p b3lyp 6-311+g(3df,2p) scf=tight nosymm

014

0    2
   Li      0.99177227     -0.07380712     -1.18742679
   Li     -1.07974550     -0.09559361      0.59451407
    H     -0.71329544     -0.06222645     -1.13995993
    H     -2.83669621      0.03314091     -0.37895682
    O      2.22518320     -0.09344647      0.23675588
    H      1.59346875     -0.15264465      1.02580384
    H      3.00255737      0.41345512      0.54564685
    H     -3.18324444      0.03112229      0.30362289
 
 
 
