#p b3lyp 6-311+g(3df,2p) scf=tight nosymm

018

0    1
    H      0.01467802      1.99206893      1.94353487
    H     -0.01392676      1.41626804      2.42815538
    H      0.00425162      2.06140015     -1.18004225
    H     -0.47238717     -1.04525044      0.55448265
    H     -0.79293285     -1.38471610     -1.60656182
   Mg     -0.00087979      0.38385504     -0.86954553
    H      1.26109943     -1.25357653     -0.79996104
   Si      0.00009749     -2.17004909     -0.47006225
 
 
 
