#p b3lyp 6-311+g(3df,2p) scf=tight nosymm

021

0    1
    H      1.57140997      0.32621596      0.66710083
    H     -0.25306246      1.99281449      0.53990616
    C      0.58502704     -0.05849274      0.39239207
    C     -0.48927997      0.95411392      0.29351608
    S      0.08351564      0.48605559     -1.41103205
    F     -0.12099476     -2.85813064     -0.64746438
   Be      0.14718209     -1.51224100     -0.32973906
    H     -1.52379756      0.66966443      0.49532035
 
 
 
