#p b3lyp 6-311+g(3df,2p) scf=tight nosymm

026

0    1
    H     -0.52806778     -2.63305211     -0.33561716
    H     -0.34286029     -2.26822604      0.29860879
    H      0.06926047     -0.23527036     -0.92877373
    H     -0.90610224      1.86472934      0.53993408
    H      1.24578005      0.93991856     -0.87613637
    B      0.41244495      0.43094180      1.56438311
    N      0.24203859      0.76393296     -0.79292176
    N     -0.19249375      1.13702584      0.53052304
 
 
 
