#p b3lyp 6-311+g(3df,2p) scf=tight nosymm

027

0    1
    H     -0.84329959      0.58915915     -1.98510473
    H     -1.23285668     -0.81316768      0.77362079
    H      0.17999954      1.39414384      2.31474277
    H      0.23902904      1.89976003      2.86874415
    C     -0.04186378     -0.08327266     -1.67580560
   Si     -0.09316976     -0.94116630     -0.18111781
    H      0.79544310     -0.18185621     -2.36814935
    H      0.99671814     -1.86360018      0.25306980
 
 
 
