#p b3lyp 6-311+g(3df,2p) scf=tight nosymm

028

0    2
    H      0.84361089      0.31146790     -0.41392239
    H      0.45680051     -1.01518743      1.56963023
    H     -0.10720928     -1.28981484     -1.35565944
    H     -1.11029164     -0.35986013     -0.88320880
    B      0.01157045     -0.56569972     -0.31147871
    O     -0.14009173     -1.30794649      0.85969597
    H      0.14995057      1.71143495      0.05479703
    F     -0.10433977      2.51560576      0.48014611
 
 
 
