#p b3lyp 6-311+g(3df,2p) scf=tight nosymm

032

0    1
    H     -0.41015328     -2.29127894      0.03259686
    H      0.27834976      1.51302733      1.73832655
   Si     -1.32395994     -0.26516994     -1.03503670
   Li      0.08752366     -0.20483830      1.57468919
    N     -0.20485866     -1.29418879     -0.09929079
   Li      0.23722790      2.12176757      0.10384294
   Al      1.39530175     -0.46049773     -1.08210533
    O     -0.05943120      0.88117879     -1.23302271
 
 
 
