#p b3lyp 6-311+g(3df,2p) scf=tight nosymm

033

0    1
    H      0.83262062     -2.20145174      0.76075534
    B     -0.23672972     -1.65423459      0.68264297
    F     -1.18120656     -2.24615119     -0.04857918
    H     -0.52156598     -0.62083477      1.22989683
    H      1.10003378      0.45957021     -1.03999428
    H      1.55436631     -0.08627273     -1.29101572
   Cl     -0.81022829      2.64914707      0.23111147
    H     -0.73729015      3.70022774     -0.52481743
 
 
 
