#p b3lyp 6-311+g(3df,2p) scf=tight nosymm

036

0    2
    H     -1.85743098     -0.92803092     -1.42789368
   Li      0.71393540     -1.12212381      0.89438342
    H     -1.00544678     -1.34303338      1.22546478
   Na     -1.06844184      0.70018369      0.74144057
    H     -1.96609435     -0.47603227     -2.02363515
    H      2.09071727      1.34856852      0.97255502
    H      1.67590385      1.07184070     -0.70678578
    C      1.41685744      0.74862747      0.32447081
 
 
 
