#p b3lyp 6-311+g(3df,2p) scf=tight nosymm

037

0    2
   Si     -1.93697744     -0.44647364     -0.19913111
    H      0.67441671      0.73910800      1.99739398
    H     -3.37458726     -0.15025512     -0.61969468
    H      1.33805910      0.53343401      2.29372949
    C     -0.49331186      0.02796020     -1.02578194
   Mg      1.43299983     -0.43385810     -0.43652456
    H     -0.68797813      0.58277734     -1.95949663
    H      3.04737905     -0.85269267     -0.05049455
 
 
 
