#p b3lyp 6-311+g(3df,2p) scf=tight nosymm

038

0    2
    H     -0.70120060      2.17503526      0.00055806
    C     -0.28677086      1.15515390     -0.00043410
    H      1.18884948     -1.82198583      0.58369561
    O      0.99437551      0.95221412     -0.00113114
   Be      0.56493591     -0.67280267     -0.00162881
    H     -1.98240239      0.01045565     -0.00068541
    H      1.19022475     -1.82355699     -0.57920258
    N     -0.96801179      0.02548657     -0.00117162
 
 
 
