#p b3lyp 6-311+g(3df,2p) scf=tight nosymm

043

0    1
    S      0.80142007     -0.00357995      1.52865037
    C     -0.66039491     -0.00312087      0.64791952
    H      1.66919547     -0.96394462      1.01217553
    H     -1.47811617     -0.00979062      1.37153812
   Cl      1.03482393     -0.00294415     -2.28916763
    H      1.65519552      0.98716256      1.04393710
    H     -2.17902273     -0.00173555     -2.08739811
   Al     -0.84310118     -0.00204680     -1.22765490
 
 
 
