#p b3lyp 6-311+g(3df,2p) scf=tight nosymm

046

0    1
    H     -1.63331974     -1.02703674      0.77434902
    H      0.43231231     -0.01488889      1.35078525
    H      2.11605346      0.63275365      0.49224151
    B      0.93567590      0.50946374      0.32615295
   Na      0.25962864     -1.89612103     -1.05389083
   Be     -0.82046332      0.00967474      0.36599977
   Si      0.10178311      1.14500579     -1.32773393
    H     -1.39167035      0.64114874     -0.92790373
 
 
 
