#p b3lyp 6-311+g(3df,2p) scf=tight nosymm

051

0    1
    H     -0.81590354     -0.11726579      2.28422615
    N     -0.17886875     -0.38671019      1.52095885
    H     -0.69829724      1.56460065     -1.42903878
    F      0.25287463      1.09138145      1.09483280
   Li     -0.16580617     -0.06412053     -0.27132515
    H      1.22332549     -1.57381422     -0.24625965
    H     -0.89068625      1.04897534     -1.94835693
    H      1.27336184     -1.56304671     -1.00503728
 
 
 
