#p b3lyp 6-311+g(3df,2p) scf=tight nosymm

052

0    1
    S      1.19943357     -0.22871299      0.22043029
    H     -0.69203092     -2.80923932     -0.39610739
    B     -0.39524969      0.50389820      0.34174994
    H     -1.52691680      0.21667432      0.56608981
    H      0.75871446      1.95433560     -1.03046678
    H     -1.02224539     -3.48349697     -0.44392833
    C      0.63933053      1.58381561     -0.00826042
    H      1.03896424      2.26272556      0.75049287
 
 
 
