#p b3lyp 6-311+g(3df,2p) scf=tight nosymm

053

0    1
    H     -1.28638898      1.35047636     -0.71022947
    C     -0.42180046      0.70716531     -0.52498416
    O     -0.67967716     -0.74476711     -0.96431629
    B      0.26965906     -0.07408552     -1.63310701
    H      0.32725408     -0.58605227      2.80693195
    H     -0.02051153      0.76234570      0.49108923
    H      0.79224748     -1.11801763      3.06411167
    H      1.01921751     -0.29706483     -2.52949592
 
 
 
