#p b3lyp 6-311+g(3df,2p) scf=tight nosymm

058

0    1
    H     -1.79486698      0.06053029     -0.72232625
   Li     -0.84429564     -0.67632038      0.69581583
    H      0.60037508      1.60888723      0.11076059
    N      0.12557582      0.74343437      0.37927650
    H     -2.35962622     -0.47517407     -0.72946403
    H      1.82564300     -0.39643648      0.83706261
    H      1.41812919     -0.46581453     -0.76032214
    N      1.02906575     -0.39910642      0.18919690
 
 
 
