#p b3lyp 6-311+g(3df,2p) scf=tight nosymm

060

0    1
    H      0.18495293      1.53000766      0.00379396
    H      1.13950380     -0.64103733      1.03231271
    H      1.14026703     -0.64126989     -1.03219688
    B      0.48878201     -0.70680923     -0.00019914
    N     -0.41792356      0.70158033     -0.00019046
    H     -1.02283911      0.73728519      0.82708400
    H     -1.01848539      0.74215187     -0.83044535
    F     -0.49425772     -1.72190860     -0.00015884
 
 
 
