#p b3lyp 6-311+g(3df,2p) scf=tight nosymm

062

0    1
    H     -0.46794228     -0.10243622      2.32843202
    H     -0.66287648      0.02680213      1.61096803
    H     -1.02113352      1.93561686     -0.89338915
    H      1.67447469      0.18044830     -0.46678071
    H     -0.73664532     -1.18163682     -1.38980597
   Na     -0.06960514     -2.40892717     -0.09928099
    H     -0.98705770      1.19567541     -1.05318694
    H      2.27078575      0.35445752     -0.03695628
 
 
 
