#p b3lyp 6-311+g(3df,2p) scf=tight nosymm

063

0    1
    H     -2.78693290     -0.02839011      1.44282708
    H     -2.03993532     -0.09880632      1.51731926
    S      0.42856077      1.57766304     -1.50361130
    H     -0.76355077      1.53022202     -0.84559160
   Mg      0.46734172     -2.55698383     -1.50106388
    F      0.44829062     -0.29757033      1.24681734
   Al      1.33827550      0.06698665     -0.15819589
    H      2.90795037     -0.19312113     -0.19850102
 
 
 
