#p b3lyp 6-311+g(3df,2p) scf=tight nosymm

064

0    1
    H      0.12955156     -1.69601924      0.98312965
    C      0.06647245     -1.21304584     -0.00794741
   Si      1.21592042      0.34263781     -0.00772878
    H      0.43470176     -1.95841908     -0.73098394
    H      0.20313732      2.56026122      0.01208212
    H     -0.99469719     -1.00982702     -0.22332606
    N     -0.02398358      1.56868563     -0.00638527
    H     -1.03110274      1.40572651     -0.01884031
 
 
 
