#p b3lyp 6-311+g(3df,2p) scf=tight nosymm

066

0    1
    H     -1.03810649     -1.54259811     -0.00565046
    H     -1.15780793     -1.45028243      0.75957523
   Al     -1.36294648      0.70137790      0.16543222
    H      1.35179083      0.99317035      0.96281453
    H     -1.23081115      0.00207870     -1.37016401
    H      1.27702055     -0.37646311      0.03875007
    H      1.24259572      1.09588873     -0.68610035
    N      0.91826494      0.57682797      0.13534277
 
 
 
