#p b3lyp 6-311+g(3df,2p) scf=tight nosymm

067

0    1
    N      0.00029686     -0.52119066     -0.84477427
    H     -0.00056092     -2.21771137      0.79499817
    H     -1.40424142      1.92868706      0.07387499
    H      1.40402711      1.92991446      0.07192162
    H     -0.00143986     -1.04220292     -1.71479799
    B      0.00020990     -1.08053385      0.41603678
   Al      0.00008719      1.19426908     -0.11616437
    H      0.00162113     -0.19123179      1.31890507
 
 
 
