#p b3lyp 6-311+g(3df,2p) scf=tight nosymm

069

0    1
    H     -0.06720168     -1.51480027      1.46964159
    N     -0.00017773     -0.62287859      0.97495187
    H     -0.00044745     -0.78648647     -0.63574765
    H     -0.78765453     -0.04341321      1.27377208
    F     -0.00009319     -0.83437129     -1.61895628
    H      0.85612248     -0.15984209      1.28719217
    H      0.00099349      2.34481875     -1.27558182
    H     -0.00154139      1.61697318     -1.47527196
 
 
 
