#p b3lyp 6-311+g(3df,2p) scf=tight nosymm

073

0    1
    C     -0.95606558      0.56094793     -0.00047424
    H     -1.95628404      0.97661643      0.00008710
    B      0.37847270      1.12441249     -0.00019563
    H      1.03892433      2.12248459     -0.00002548
   Be      0.05927559     -0.64326571     -0.00094671
    H      0.47296158     -2.14553452      0.00021880
    H      1.29508659      0.10504802     -0.00065234
    H     -0.33237118     -2.10070923      0.00198850
 
 
 
