#p b3lyp 6-311+g(3df,2p) scf=tight nosymm

076

0    1
    H     -0.10731974      2.90062127     -0.02721334
    H      0.35759987     -1.90152340      0.97789698
   Li     -0.27774909      0.78724405     -0.00029337
    H      0.84571867     -0.46905617     -0.34423365
    H     -1.10235582     -0.68915350      0.32212206
    B     -0.04345686     -1.30148273      0.00006300
    H      0.61490356      2.68175027      0.02927898
    H     -0.28734058     -2.00839980     -0.95762068
 
 
 
