#p b3lyp 6-311+g(3df,2p) scf=tight nosymm

080

0    1
    H      1.61282792     -1.52832799     -0.00014610
   Be      0.42598758     -0.79902040     -0.00126384
    C      0.13191335      0.80323637     -0.00096786
    H      0.15386538      1.89491439     -0.00188952
    B     -1.15717663      0.10045689      0.00068023
   Li      2.17554831      0.37695780      0.00120843
    H     -1.01446968     -1.20023292      0.00130359
    H     -2.32849622      0.35201588      0.00107508
 
 
 
