#p b3lyp 6-311+g(3df,2p) scf=tight nosymm

084

0    1
    H     -0.57705858      0.84578151      1.16694929
    C     -0.00000377      0.00000241      0.76451105
    H      0.44371878      0.92281527     -1.16692710
    H      1.02093769      0.07690588      1.16706420
    C      0.00003312     -0.00000491     -0.76450579
    H     -0.44384154     -0.92275333      1.16691105
    H      0.57714595     -0.84572790     -1.16697204
    H     -1.02093166     -0.07701894     -1.16703067
 
 
 
