#p b3lyp 6-311+g(3df,2p) scf=tight nosymm

086

0    1
    H     -1.19030433      0.49985208     -1.06691432
    B     -0.02391854      0.21096152     -1.05818271
    H     -0.09585746     -0.59266931      0.04561148
    H      0.33817558     -0.38348407     -2.05598642
    H      0.26065619      0.37579592      2.49987440
    H      0.80712727      0.95510272     -0.61099501
    H     -0.26449872     -0.01356462      2.87214531
    H      0.16862001     -1.05199425     -0.62555272
 
 
 
