#p b3lyp 6-311+g(3df,2p) scf=tight nosymm

094

0    2
    C      0.02618752      1.78565208      0.66653864
    S      0.02122855      1.31635377     -1.00552012
    H     -0.08028732      2.84678354      0.88264473
    H     -0.87422266     -2.26705583     -0.10863662
    H      0.28066423      1.07558500      1.44742835
    H      0.15890150     -0.03197667     -0.80176824
    H      0.41804359     -2.71826859     -0.81576107
    O      0.04948458     -2.00707330     -0.26492566
 
 
 
