#p b3lyp 6-311+g(3df,2p) scf=tight nosymm

103

0    2
    H     -1.62001173     -1.35409824     -0.00053349
    O      2.14132310     -0.13514507     -0.00065711
    C     -1.40484082     -0.29159908     -0.00124939
    H      2.07433907      0.86300467     -0.00181913
    C      0.96506321     -0.76947939      0.00055139
    H      0.08964179      1.11654925      0.00033246
    H     -2.16448233      0.48219518      0.00283422
    N     -0.08103230      0.08857268      0.00054104
 
 
 
