#p b3lyp 6-311+g(3df,2p) scf=tight nosymm

110

0    1
    C     -0.00549093     -0.60475519      0.52782854
    C     -0.00997123      0.46419346      1.52958037
    C     -0.00151020     -0.89818103      1.84454068
    H      0.00457174     -1.67398882      2.61004753
    H      0.01611927      1.95679138     -1.22513821
    H     -0.00760175     -0.58614938     -3.25955498
   Mg     -0.00545099     -0.49131983     -1.55834504
    H      0.00933408      1.83340942     -0.46895889
 
 
 
