#p b3lyp 6-311+g(3df,2p) scf=tight nosymm

116

0    2
    P     -1.05664042     -0.04164748     -0.93069138
    H     -0.19395812      1.67625346      0.60864815
    O     -0.22211856      0.70363992      0.58625082
    H     -3.01397351     -1.37823719      1.57281648
    H     -0.42426452      0.88671388     -1.84502870
   Al      1.10099948     -0.52702149     -0.09878624
    F      2.35522462      0.37209377     -0.80661898
    H      1.45473104     -1.69179488      0.91340985
 
 
 
