#p b3lyp 6-311+g(3df,2p) scf=tight nosymm

118

0    1
    H      1.92102320      0.73537634     -1.48890931
    H      1.61327190      1.36482363     -1.17229611
    H      1.67340845     -1.05242910      0.57468013
   Al      0.64769148      0.07352290      0.20027381
    H     -2.52206793     -1.96486302      1.04451579
    O     -0.09516548      1.62340335      0.49825081
    H     -2.31345690     -1.31532425      0.72084882
    O     -0.92470471      0.53549015     -0.37736394
 
 
 
