#p b3lyp 6-311+g(3df,2p) scf=tight nosymm

120

0    2
    H      0.77977908     -0.86959061      2.30096051
    H      1.36680613      0.81444154      0.79211200
    S     -0.15235239      0.06799057      1.98481037
    H     -0.29324072      1.79667031     -1.11976041
    H     -0.34614037     -1.56520327     -1.56207478
   Li      0.22684286      0.02324171     -0.24501872
    H     -0.62325038     -1.73321269     -0.87627819
    H     -0.95844421      1.46566243     -1.27475077
 
 
 
