#p b3lyp 6-311+g(3df,2p) scf=tight nosymm

124

0    2
    C     -1.20657763     -0.70601862     -0.47902494
   Si     -0.81745554     -0.45136049      1.49909452
    C     -0.98753834      0.57227647     -0.43815234
    P     -0.93141425      1.80379912      0.76158600
    H     -1.49518963     -1.51796594     -1.13814261
    H      0.72090304     -0.54361267      1.49505562
    H      2.48115711      0.27967435     -0.52428624
    H      2.23611525      0.56320779     -1.17613001
 
 
 
