#p b3lyp 6-311+g(3df,2p) scf=tight nosymm

127

0    1
   Si      0.00500418     -0.34904847      0.37292572
    H     -1.25087697      0.44362960      0.52002342
    C     -0.00115086     -2.03430422      0.00989517
    H     -0.92791276     -2.59153359     -0.13319153
    H      1.26673523      0.42318159      0.56925358
    H     -0.27546944      3.35700142     -0.35950335
    H      0.92202524     -2.60595328     -0.09370556
    H      0.26164537      3.35702696     -0.88569745
 
 
 
