#p b3lyp 6-311+g(3df,2p) scf=tight nosymm

131

0    1
    H     -1.38009392     -0.39859352      0.00033063
    C     -0.29601223     -0.24777568      0.00100896
    H     -0.49040006      1.99446340      1.03015809
    P      0.37631916      1.47801605      0.00111070
    H      0.13879269     -2.32709227      0.00020922
    C      0.52391465     -1.30409395      0.00087357
    H     -0.48350828      1.99138277     -1.03530470
    H      1.61098800     -1.18630680      0.00161353
 
 
 
