#p b3lyp 6-311+g(3df,2p) scf=tight nosymm

133

0    1
    H      0.01618199     -2.07319103     -0.83810577
    P      0.00168316     -0.79591025     -0.06812153
    F      0.00223704      2.72283260     -0.09530942
    H     -0.01409065      0.53221804      0.77199119
    H     -1.42826605     -0.69738985     -0.16537220
    H      0.82275556     -0.13363939     -1.04197415
    H     -0.00616668      1.87617129      0.36485708
    H      0.60566563     -1.43109143      1.07203481
 
 
 
