#p b3lyp 6-311+g(3df,2p) scf=tight nosymm

136

0    1
    H     -0.64762674      2.95876811     -0.31431348
    H     -0.38808987      2.29901909     -0.56811498
    H     -0.46982141      0.02713457      1.23681887
    H     -0.44619067     -2.23308579     -1.25807289
    H      1.15513684     -0.83075843      1.35211322
    O      0.58676277     -0.20120470     -0.67465803
    C      0.25356947     -0.64235405      0.76247263
    B     -0.04374038     -1.37751881     -0.53624534
 
 
 
