#p b3lyp 6-311+g(3df,2p) scf=tight nosymm

137

0    1
    H     -1.02575424     -0.05267705      1.39180748
    H     -0.61931633     -1.26237748     -1.42704500
    C      0.00011670     -0.00020801      1.00107845
    H      0.55848309     -0.86183696      1.39323190
    H      1.40226543      0.09415680     -1.42707634
    H     -0.78375121      1.16740878     -1.42575942
    H      0.46784077      0.91570057      1.38872582
   Si      0.00011581     -0.00016665     -0.89496288
 
 
 
