#p b3lyp 6-311+g(3df,2p) scf=tight nosymm

145

0    1
    B      1.27959773     -0.33334768     -0.02570416
    H      0.00134579      1.64433745     -0.58884309
    C     -0.00021943      0.67438202     -0.10029454
    H     -2.45185824     -0.22204654     -0.14303270
    H      2.45316801     -0.21941452     -0.11641616
    C      0.00188215     -0.94297492     -0.49842681
    P     -0.00467581     -0.26735511      1.50623197
    B     -1.27924018     -0.33358068     -0.03351452
 
 
 
