#p b3lyp 6-311+g(3df,2p) scf=tight nosymm

147

0    1
    H     -2.34486087      0.13645231      0.42479426
    H      0.76678758     -1.41390474     -0.33836042
    C     -1.33161726     -0.06936490      0.06187410
    H     -1.11516407      0.44717965     -0.87897693
   Si     -0.38642961     -1.66562841      0.66205422
    H      2.15931749      0.75985446     -0.46105458
    F     -0.40296108      0.48594436      1.07868745
    H      2.65492783      1.31946727     -0.54901810
 
 
 
