#p b3lyp 6-311+g(3df,2p) scf=tight nosymm

148

0    1
    C      0.91378614      1.17659567     -0.13079996
    S      0.58777016     -0.23817740      1.12765867
    H      0.52082403     -2.18343771     -0.40050684
    C      0.01223068     -1.20962531     -0.34323852
    B     -0.21738461      1.54223440      0.64359419
    H     -1.18284416      2.08835411      1.05952346
   Si      0.43957669      0.21229607     -1.67800255
    H     -1.07395894     -1.38823983     -0.27822845
 
 
 
