#p b3lyp 6-311+g(3df,2p) scf=tight nosymm

159

0    1
    H     -1.79472461      0.01757505     -1.44883882
    H     -1.04087444      0.97247195      1.55534153
   Mg     -0.08054617      0.01216828     -1.70751000
    P     -0.01235050      0.01838194      1.87136391
    H      1.43961041      0.02037648     -2.55159666
    H     -0.90281130     -1.08820802      1.64148020
    O      0.71053690      0.00934089      0.28525265
    H      1.68115969      0.03789343      0.35450719
 
 
 
