#p b3lyp 6-311+g(3df,2p) scf=tight nosymm

160

0    1
    H     -0.55265116      1.15280928      3.76579032
    H     -0.19817532     -0.31436282      2.11755311
    H      0.12425579      0.54393266     -1.66012934
    H     -0.10568436      0.67802234      4.14352466
   Cl     -0.15400599     -1.81741045     -2.90542567
   Cl     -0.11913205     -0.98501795      1.00784078
    H      1.19311640      0.44971503     -3.42555003
    P     -0.18772330      0.29231191     -3.04360382
 
 
 
