#p b3lyp 6-311+g(3df,2p) scf=tight nosymm

164

0    1
    C      0.00056779     -0.42425810      1.39332327
    H     -0.94034689     -0.95838217      1.12068844
    O      0.00033799      0.62931535      1.99882716
    H     -0.80583552      0.88132333     -1.17031208
    H      0.94157854     -0.95922933      1.12288019
    H     -0.03276809     -0.26503668     -2.06747017
    H      0.83582385      0.84236298     -1.21011225
    N      0.00064234      0.25390463     -1.18782457
 
 
 
