#p b3lyp 6-311+g(3df,2p) scf=tight nosymm

170_c

0    1
    C      0.00000000      0.00000000      0.00000000
    H      0.63307156      0.63307156     -0.63307156
    H     -0.63307156     -0.63307156     -0.63307156
    H      0.63307156     -0.63307156      0.63307156
    H     -0.63307156      0.63307156      0.63307156
 
 
 
