#p b3lyp 6-311+g(3df,2p) scf=tight nosymm

177_si

0    1
   Si      0.00000000      0.00000000      0.00000000
    H     -0.86551588      0.86551588      0.86551588
    H      0.86551588     -0.86551588      0.86551588
    H     -0.86551588     -0.86551588     -0.86551588
    H      0.86551588      0.86551588     -0.86551588
 
 
 
