%nproc=8
%chk=G2-167.chk
#p b3lyp/6-311+G(d,p) opt freq

C6H5-NH2 (Aniline, Cs)

0 1
 C                  0.00201400    0.93681400    0.00000000
 C                  0.00331300    0.22062200    1.20626000
 C                  0.00331300    0.22062200   -1.20626000
 C                  0.00331300   -1.17065800    1.20091500
 C                  0.00331300   -1.17065800   -1.20091500
 C                  0.00326200   -1.87961800    0.00000000
 N                  0.05989100    2.33410100    0.00000000
 H                 -0.27886500    2.78472100   -0.83729700
 H                 -0.27886500    2.78472100    0.83729700
 H                  0.00307200   -1.70387700    2.14543800
 H                  0.00307200   -1.70387700   -2.14543800
 H                  0.00286500   -2.96295300    0.00000000
 H                  0.00915800    0.75991300    2.14843200
 H                  0.00915800    0.75991300   -2.14843200  
  
