%nproc=8
%chk=G2-190.chk
#p b3lyp/6-311+G(d,p) opt freq

CH3-CH2-CH(CH3)-NO2. Nitro-s-butane. C1 symm. Optimized Energy =
-362.9597417. Local minimum.

0 1
 C                  0.00450600    0.61152800   -0.44221300
 C                 -1.35451900    0.58063800    0.26075100
 C                 -2.18947100   -0.66788000   -0.03410200
 C                  0.80974100    1.87756900   -0.16412800
 N                  0.83286700   -0.59256800    0.01596000
 O                  1.20206900   -1.38257400   -0.84020900
 O                  1.07476200   -0.68621000    1.21000400
 H                 -3.16074200   -0.60245300    0.46162300
 H                 -1.69852400   -1.57562900    0.32622900
 H                 -2.36823600   -0.78562900   -1.10675500
 H                  1.78064500    1.84863900   -0.66351800
 H                  0.96811100    2.00689800    0.90774700
 H                  0.25844400    2.74097200   -0.54348300
 H                 -1.89339900    1.47549400   -0.06847700
 H                 -1.19183600    0.68628900    1.33698000
 H                 -0.10705100    0.44533800   -1.51389900  
  
