%nproc=8
%chk=G2-180.chk
#p b3lyp/6-311+G(d,p) opt freq

Acetic anhydride. CH3-C(=O)-O-C(=O)-CH3. C2v -> C2 symmetry. Optimized
Energy = -381.727898. Local minimum.

0 1
 O                  0.00000000    0.00000000    0.59891200
 C                  0.00000000    1.21903500   -0.08604600
 O                  0.50880400    1.35967900   -1.15513800
 C                 -0.66442600    2.27590700    0.74852700
 C                  0.00000000   -1.21903500   -0.08604600
 O                 -0.50880400   -1.35967900   -1.15513800
 C                  0.66442600   -2.27590700    0.74852700
 H                  0.52093700   -3.25033700    0.28627700
 H                  0.25773600   -2.27005800    1.76168200
 H                  1.73275400   -2.05490600    0.82260600
 H                 -0.52093700    3.25033700    0.28627700
 H                 -0.25773600    2.27005800    1.76168200
 H                 -1.73275400    2.05490600    0.82260600  
  
