%nproc=8
%chk=G2-122.chk
#p b3lyp/6-311+G(d,p) opt freq

Vinyl chloride, H2C=CHCl. Cs symm.

0 1
 C                  0.00000000    0.76643900    0.00000000
 C                  1.29246900    1.05194100    0.00000000
 Cl                -0.62524800   -0.87003900    0.00000000
 H                 -0.78953300    1.50550600    0.00000000
 H                  2.05733800    0.28574300    0.00000000
 H                  1.60659800    2.08913700    0.00000000 
 
