%nproc=8
%chk=G2-141.chk
#p b3lyp/6-311+G(d,p) opt freq

H2COH C1

0 2
 C                  0.00000000    0.00000000    0.00000000
 O                  0.00000000    0.00000000    1.36650800
 H                  0.90475400    0.00000000    1.69433000
 H                  0.87632900   -0.35901500   -0.52677900
 H                 -0.98669700   -0.05979700   -0.43409400 
 
