%nproc=8
%chk=G2-111.chk
#p b3lyp/6-311+G(d,p) opt freq

OXIRANE

0 1
 C                  0.00000000    0.73370000   -0.37322200
 O                  0.00000000    0.00000000    0.85519400
 C                  0.00000000   -0.73370000   -0.37322200
 H                  0.91971200    1.27061800   -0.59072300
 H                 -0.91971200    1.27061800   -0.59072300
 H                 -0.91971200   -1.27061800   -0.59072300
 H                  0.91971200   -1.27061800   -0.59072300 
 
