%nproc=8
%chk=G2-153.chk
#p b3lyp/6-311+G(d,p) opt freq

Neopentane. C(CH3)4. Td symmetry. Optimized Energy = -197.773090. Local minimum.

0 1
 C                  0.00000000    0.00000000    0.00000000
 C                  0.88884500    0.88884500    0.88884500
 C                 -0.88884500   -0.88884500    0.88884500
 C                 -0.88884500    0.88884500   -0.88884500
 C                  0.88884500   -0.88884500   -0.88884500
 H                  1.53351100    1.53351100    0.28315200
 H                  0.28315200    1.53351100    1.53351100
 H                  1.53351100    0.28315200    1.53351100
 H                 -1.53351100   -1.53351100    0.28315200
 H                 -0.28315200   -1.53351100    1.53351100
 H                 -1.53351100   -0.28315200    1.53351100
 H                 -1.53351100    0.28315200   -1.53351100
 H                 -1.53351100    1.53351100   -0.28315200
 H                 -0.28315200    1.53351100   -1.53351100
 H                  0.28315200   -1.53351100   -1.53351100
 H                  1.53351100   -0.28315200   -1.53351100
 H                  1.53351100   -1.53351100   -0.28315200  
  
