%nproc=8
%chk=G2-112.chk
#p b3lyp/6-311+G(d,p) opt freq

Acetaldehyde

0 1
 O                  1.20372700    0.38809500    0.00000000
 C                  0.00000000    0.46039300    0.00000000
 H                 -0.49889200    1.45451400    0.00000000
 C                 -0.93154600   -0.72058900    0.00000000
 H                 -0.37426500   -1.65721700    0.00000000
 H                 -1.58369100   -0.67044200    0.87899500
 H                 -1.58369100   -0.67044200   -0.87899500 
 
