%nproc=8
%chk=G2-194.chk
#p b3lyp/6-311+G(d,p) opt freq

CH3-CH2-S-S-CH2-CH3. Diethyl disulfide. C2h -> C2 symmetry. Optimized
Energy = -954.837434. Local minimum.

0 1
 H                 -2.39185800    3.07878600    1.40471700
 H                 -3.14063700    1.54907600    0.93271000
 H                 -2.67269800    2.72600900   -0.30453000
 C                 -2.38276700    2.28507000    0.65244900
 H                 -0.24010000    2.39619500    0.29673700
 H                 -0.70971100    1.22094300    1.53764300
 C                 -0.99241000    1.65871500    0.57890400
 S                 -0.99241000    0.32643600   -0.70346200
 S                  0.99241000   -0.32643600   -0.70346200
 C                  0.99241000   -1.65871500    0.57890400
 C                  2.38276700   -2.28507000    0.65244900
 H                  0.24010000   -2.39619500    0.29673700
 H                  0.70971100   -1.22094300    1.53764300
 H                  2.39185800   -3.07878600    1.40471700
 H                  3.14063700   -1.54907600    0.93271000
 H                  2.67269800   -2.72600900   -0.30453000  
  
