%nproc=8
%chk=G2-113.chk
#p b3lyp/6-311+G(d,p) opt freq

Glyoxal, O=CH-CH=O. Trans, C2h symm.

0 1
 C                 -0.32814000    0.69005300    0.00000000
 C                  0.32814000   -0.69005300    0.00000000
 O                  0.32814000    1.69838500    0.00000000
 H                 -1.43556000    0.68082900    0.00000000
 O                 -0.32814000   -1.69838500    0.00000000
 H                  1.43556000   -0.68082900    0.00000000 
 
