%nproc=8
%chk=G2-139.chk
#p b3lyp/6-311+G(d,p) opt freq

C2H3 CS,2-A'

0 2
 C                  0.04798700   -0.58617200    0.00000000
 C                  0.04798700    0.71928800    0.00000000
 H                 -0.88062200   -1.16410900    0.00000000
 H                  0.96845100   -1.16634600    0.00000000
 H                 -0.66367900    1.53175800    0.00000000 
 
