%nproc=8
%chk=G2-129.chk
#p b3lyp/6-311+G(d,p) opt freq

Isopropyl alcohol, (CH3)2CH-OH. Gauche isomer. C1 symm.

0 1
 O                  0.00000000    0.00000000    0.00000000
 C                  0.00000000    0.00000000    1.43689600
 H                  0.91177300    0.00000000   -0.30885800
 H                  0.45650400    0.93582500    1.79165100
 C                 -1.45959900   -0.02670800    1.86537500
 C                  0.79943200   -1.17955000    1.98800700
 H                 -1.93966500   -0.94618500    1.51899200
 H                  0.36661300   -2.12495200    1.64920000
 H                 -1.99753200    0.82233800    1.43856500
 H                  1.84180300   -1.14079000    1.65447200
 H                 -1.54247400    0.02117900    2.95441800
 H                  0.80294400   -1.17008800    3.08208600 
 
