%nproc=8
%chk=G2-110.chk
#p b3lyp/6-311+G(d,p) opt freq

KETENE

0 1
 C                  0.00000000    0.00000000   -1.20729700
 C                  0.00000000    0.00000000    0.10271000
 H                  0.00000000    0.93826800   -1.74266500
 H                  0.00000000   -0.93826800   -1.74266500
 O                  0.00000000    0.00000000    1.26410600 
 
