%nproc=8
%chk=G2-119.chk
#p b3lyp/6-311+G(d,p) opt freq

C2H6S

0 1
 C                  0.00000000    1.39406700   -0.51473600
 S                  0.00000000    0.00000000    0.66173500
 C                  0.00000000   -1.39406700   -0.51473600
 H                  0.00000000    2.30930900    0.07797500
 H                  0.89368800    1.38115800   -1.14172000
 H                 -0.89368800    1.38115800   -1.14172000
 H                  0.00000000   -2.30930900    0.07797500
 H                 -0.89368800   -1.38115800   -1.14172000
 H                  0.89368800   -1.38115800   -1.14172000 
 
