%nproc=8
%chk=G2-152.chk
#p b3lyp/6-311+G(d,p) opt freq

n-pentane c5h12 Optimized Energy = -197.7717785

0 1
 C                  0.00000000    0.00000000    0.31460400
 C                  0.00000000    1.28406000   -0.52270000
 C                  0.00000000   -1.28406000   -0.52270000
 C                  0.00000000    2.56008400    0.32407300
 C                  0.00000000   -2.56008400    0.32407300
 H                 -0.87663400    0.00000000    0.97584500
 H                  0.87663400    0.00000000    0.97584500
 H                 -0.87606700    1.28361400   -1.18269100
 H                  0.87606700    1.28361400   -1.18269100
 H                  0.87606700   -1.28361400   -1.18269100
 H                 -0.87606700   -1.28361400   -1.18269100
 H                  0.88272400    2.60599900    0.96965200
 H                 -0.88272400    2.60599900    0.96965200
 H                 -0.88272400   -2.60599900    0.96965200
 H                  0.88272400   -2.60599900    0.96965200
 H                  0.00000000    3.45673900   -0.30181200
 H                  0.00000000   -3.45673900   -0.30181200  
  
