%nproc=8
%chk=G2-19.chk
#p b3lyp/6-311+G(d,p) opt freq

PH3 c3v

0 1
 P                  0.00000000    0.00000000    0.12832200
 H                  0.00000000    1.19691500   -0.64160900
 H                  1.03655900   -0.59845700   -0.64160900
 H                 -1.03655900   -0.59845700   -0.64160900 
 
