%nproc=8
%chk=G2-156.chk
#p b3lyp/6-311+G(d,p) opt freq

C6H12. Cyclohexane (chair). D3d symmetry. Optimized Energy = -235.8804328

0 1
 C                 -1.27032400    0.73342200    0.22812600
 C                  0.00000000   -1.46684400    0.22812600
 C                  1.27032400    0.73342200    0.22812600
 C                  0.00000000    1.46684400   -0.22812600
 C                 -1.27032400   -0.73342200   -0.22812600
 C                  1.27032400   -0.73342200   -0.22812600
 H                 -1.33187100    0.76895600    1.32387700
 H                 -2.16060800    1.24742700   -0.14904200
 H                  0.00000000   -1.53791200    1.32387700
 H                  0.00000000   -2.49485500   -0.14904200
 H                  1.33187100    0.76895600    1.32387700
 H                  2.16060800    1.24742700   -0.14904200
 H                  0.00000000    1.53791200   -1.32387700
 H                  0.00000000    2.49485500    0.14904200
 H                 -1.33187100   -0.76895600   -1.32387700
 H                 -2.16060800   -1.24742700    0.14904200
 H                  1.33187100   -0.76895600   -1.32387700
 H                  2.16060800   -1.24742700    0.14904200  
  
