%nproc=8
%chk=G2-116.chk
#p b3lyp/6-311+G(d,p) opt freq

Thiooxirane. (cyclic CH2-S-CH2 ring). C2v symm.

0 1
 C                  0.00000000    0.73955700   -0.80635800
 S                  0.00000000    0.00000000    0.87468000
 C                  0.00000000   -0.73955700   -0.80635800
 H                  0.91408700    1.25359700   -1.07964700
 H                 -0.91408700    1.25359700   -1.07964700
 H                 -0.91408700   -1.25359700   -1.07964700
 H                  0.91408700   -1.25359700   -1.07964700 
 
