%nproc=8
%chk=G2-16.chk
#p b3lyp/6-311+G(d,p) opt freq

SIH3 c3v

0 2
 Si                 0.00000000    0.00000000    0.07984200
 H                  0.00000000    1.41533000   -0.37259400
 H                  1.22571100   -0.70766500   -0.37259400
 H                 -1.22571100   -0.70766500   -0.37259400 
 
