%nproc=8
%chk=G2-192.chk
#p b3lyp/6-311+G(d,p) opt freq

CH3-CH(OCH3)2. C1 symmetry. More stable conformer. Optimized Energy =
-308.871268. Local minimum.

0 1
 H                 -1.87875500   -0.05063600   -1.14945400
 C                 -1.87798300   -0.06603900   -0.05796700
 C                 -0.45965500   -0.07254300    0.49010400
 H                 -0.46702400   -0.19307700    1.58100200
 H                 -2.42012100    0.80540800    0.31510900
 H                 -2.39682900   -0.97003500    0.26569700
 O                  0.24111800    1.14725300    0.31181200
 O                  0.21206600   -1.16337800   -0.10219500
 C                  0.37004400    1.61100500   -1.02922600
 C                  1.46505200   -1.47298400    0.49705100
 H                  1.09816100    2.42185700   -1.00176600
 H                  1.85525700   -2.34577800   -0.02623500
 H                 -0.57721000    2.00256000   -1.41682200
 H                  0.73354200    0.82221600   -1.69513900
 H                  1.34106700   -1.71616500    1.56055800
 H                  2.17234600   -0.64327700    0.40418800  
  
