%nproc=8
%chk=G2-173.chk
#p b3lyp/6-311+G(d,p) opt freq

pyrimidine C4H4N2 Optimized Energy = -264.3237243

0 1
 C                  0.00000000    0.00000000   -1.30964100
 C                  0.00000000    0.00000000    1.35336700
 N                  0.00000000    1.19501700   -0.71417000
 N                  0.00000000   -1.19501700   -0.71417000
 C                  0.00000000    1.18329800    0.62199300
 C                  0.00000000   -1.18329800    0.62199300
 H                  0.00000000    0.00000000   -2.39553900
 H                  0.00000000    0.00000000    2.43629900
 H                  0.00000000    2.15114800    1.11567000
 H                  0.00000000   -2.15114800    1.11567000  
  
