%nproc=8
%chk=G2-181.chk
#p b3lyp/6-311+G(d,p) opt freq

2,5-Dihydrothiophene. C4H6S. C2v symmetry. Optimized Energy = -554.204319.
Local minimum.

0 1
 S                  0.00000000    0.00000000    1.25739400
 C                  0.00000000    1.35346000   -0.00490700
 C                  0.00000000   -1.35346000   -0.00490700
 C                  0.00000000    0.66464900   -1.33963600
 C                  0.00000000   -0.66464900   -1.33963600
 H                 -0.88460600    1.98267000    0.12824100
 H                  0.88460600   -1.98267000    0.12824100
 H                  0.88460600    1.98267000    0.12824100
 H                 -0.88460600   -1.98267000    0.12824100
 H                  0.00000000    1.25789000   -2.24837300
 H                  0.00000000   -1.25789000   -2.24837300  
  
