%nproc=8
%chk=G2-176.chk
#p b3lyp/6-311+G(d,p) opt freq

N==C-CH2-CH2-C==N. C2h symmetry. Optimized Energy = -264.301387. Local
minimum.

0 1
 C                 -0.42338600    1.83805600    0.00000000
 N                 -1.10770400    2.76543200    0.00000000
 C                  0.42338600    0.64868800    0.00000000
 H                  1.07154900    0.67534300    0.87966400
 H                  1.07154900    0.67534300   -0.87966400
 C                 -0.42338600   -0.64868800    0.00000000
 H                 -1.07154900   -0.67534300    0.87966400
 C                  0.42338600   -1.83805600    0.00000000
 H                 -1.07154900   -0.67534300   -0.87966400
 N                  1.10770400   -2.76543200    0.00000000  
  
