%nproc=8
%chk=G2-168.chk
#p b3lyp/6-311+G(d,p) opt freq

C6H5-OH (Phenol, Planar Cs)

0 1
 C                  0.00000000    0.93863300    0.00000000
 C                 -1.20391500    0.23194900    0.00000000
 C                 -1.18787100   -1.16215000    0.00000000
 C                  0.02023100   -1.85532300    0.00000000
 C                  1.21831400   -1.13890400    0.00000000
 C                  1.21545300    0.25201500    0.00000000
 O                  0.05137500    2.30734300    0.00000000
 H                 -0.84187700    2.66652100    0.00000000
 H                 -2.14879500    0.76804100    0.00000000
 H                 -2.12708700   -1.70393100    0.00000000
 H                  0.02964200   -2.93865200    0.00000000
 H                  2.16528700   -1.66712300    0.00000000
 H                  2.13854700    0.81907400    0.00000000  
  
