%nproc=8
%chk=G2-166.chk
#p b3lyp/6-311+G(d,p) opt freq

t-butanol. (CH3)3C-OH. Cs symm. Optimized Energy = -233.6709603

0 1
 C                  0.00189900    0.01239100    0.00000000
 O                 -0.48705500    1.37083500    0.00000000
 C                  1.52469800    0.14505200    0.00000000
 C                 -0.48705500   -0.70698800    1.26410200
 C                 -0.48705500   -0.70698800   -1.26410200
 H                 -1.45019500    1.34921400    0.00000000
 H                  2.00067600   -0.83886800    0.00000000
 H                  1.85616100    0.69306700    0.88494900
 H                  1.85616100    0.69306700   -0.88494900
 H                 -0.09695000   -1.72763200    1.31531900
 H                 -1.58065200   -0.76824100    1.27937700
 H                 -0.16304400   -0.16610700    2.15629700
 H                 -0.09695000   -1.72763200   -1.31531900
 H                 -1.58065200   -0.76824100   -1.27937700
 H                 -0.16304400   -0.16610700   -2.15629700  
  
