%nproc=8
%chk=G2-193.chk
#p b3lyp/6-311+G(d,p) opt freq

(CH3)3C-SH. t-butanethiol. Cs symm. Optimized Energy = -556.643016. Local
minimum.

0 1
 C                  0.35704500   -0.00990100    0.00000000
 S                 -1.51445700    0.09411800    0.00000000
 C                  0.83952700    1.44773000    0.00000000
 C                  0.83952700   -0.73490100    1.26238200
 C                  0.83952700   -0.73490100   -1.26238200
 H                 -1.74767500   -1.23489000    0.00000000
 H                  1.93371400    1.47191000    0.00000000
 H                  0.48947300    1.98298400    0.88617500
 H                  0.48947300    1.98298400   -0.88617500
 H                  1.93513800   -0.75962500    1.28392400
 H                  0.48270500   -1.76799400    1.28957400
 H                  0.48844400   -0.23089700    2.16486700
 H                  1.93513800   -0.75962500   -1.28392400
 H                  0.48270500   -1.76799400   -1.28957400
 H                  0.48844400   -0.23089700   -2.16486700  
  
