%nproc=8
%chk=G2-133.chk
#p b3lyp/6-311+G(d,p) opt freq

Thiophene

0 1
 S                  0.00000000    0.00000000    1.19805700
 C                  0.00000000    1.24136400   -0.01159600
 C                  0.00000000   -1.24136400   -0.01159600
 C                  0.00000000    0.71392100   -1.27145300
 C                  0.00000000   -0.71392100   -1.27145300
 H                  0.00000000    2.27952700    0.28259600
 H                  0.00000000   -2.27952700    0.28259600
 H                  0.00000000    1.31859400   -2.16875900
 H                  0.00000000   -1.31859400   -2.16875900 
 
