%nproc=8
%chk=G2-191.chk
#p b3lyp/6-311+G(d,p) opt freq

CH3-CH2-O-CH2-CH3. Diethyl ether. C2v symmetry. Optimized Energy =
-233.663459. Local minimum.

0 1
 H                  0.00000000    3.31347700   -0.16293100
 C                  0.00000000    2.38401300    0.41323000
 H                  0.88556200    2.37342400    1.05294000
 C                  0.00000000    1.18642200   -0.51933600
 H                 -0.88556200    2.37342400    1.05294000
 H                  0.88675100    1.20436000   -1.17212600
 H                 -0.88675100    1.20436000   -1.17212600
 O                  0.00000000    0.00000000    0.25948400
 C                  0.00000000   -1.18642200   -0.51933600
 C                  0.00000000   -2.38401300    0.41323000
 H                  0.88675100   -1.20436000   -1.17212600
 H                 -0.88675100   -1.20436000   -1.17212600
 H                  0.00000000   -3.31347700   -0.16293100
 H                 -0.88556200   -2.37342400    1.05294000
 H                  0.88556200   -2.37342400    1.05294000  
  
