%nproc=8
%chk=G2-149.chk
#p b3lyp/6-311+G(d,p) opt freq

C4H6 isomer. CH3-CH=C=CH2. C1 symmetry. Optimized Energy = -155.975820.
Local minimum.

0 1
 C                  0.37992600    1.68823300   -0.44023000
 C                 -0.49009900    0.45557400   -0.41307300
 C                 -0.17583400   -0.67252800    0.16290300
 C                  0.14090300   -1.79933000    0.73995100
 H                  0.60664600    1.97923900   -1.47114600
 H                  1.32107300    1.52123900    0.08533900
 H                 -0.13280800    2.53417300    0.02924500
 H                 -1.45417800    0.52124200   -0.91583900
 H                  0.66825500   -2.58265900    0.20327100
 H                 -0.11317000   -1.99601000    1.77750300  
  
