%nproc=8
%chk=G2-103.chk
#p b3lyp/6-311+G(d,p) opt freq

Formic Acid. HCOOH. HOCO cis. Cs symm.

0 1
 O                 -1.02883400   -0.44703000    0.00000000
 C                  0.00000000    0.42148800    0.00000000
 O                  1.15979700    0.11800000    0.00000000
 H                 -0.66109700   -1.34546900    0.00000000
 H                 -0.38660400    1.44878100    0.00000000 
 
