%nproc=8
%chk=G2-188.chk
#p b3lyp/6-311+G(d,p) opt freq

n-Butyl chloride. CH3-CH2-CH2-CH2-Cl. Cs symmetry. Optimized Energy =
-618.053851. Local minimum.

0 1
 H                 -0.57885400    3.12529200    0.88315900
 C                 -1.13635900    2.79906500    0.00000000
 H                 -2.09607000    3.32232400    0.00000000
 C                 -1.33229900    1.27998800    0.00000000
 H                 -0.57885400    3.12529200   -0.88315900
 H                 -1.92184200    0.98810500    0.87725700
 C                  0.00000000    0.51590800    0.00000000
 H                 -1.92184200    0.98810500   -0.87725700
 H                  0.58864500    0.79864000    0.87872700
 H                  0.58864500    0.79864000   -0.87872700
 C                 -0.20702300   -0.98956700    0.00000000
 H                 -0.73916500   -1.32874000    0.88803500
 Cl                 1.37956400   -1.88948700    0.00000000
 H                 -0.73916500   -1.32874000   -0.88803500  
  
