%nproc=8
%chk=G2-161.chk
#p b3lyp/6-311+G(d,p) opt freq

cyclooctatetraene C8H8 Optimized Energy = -309.5835476

0 1
 C                  0.67232400    1.56433700    0.37512600
 C                 -0.66718300    1.56653700    0.37512600
 C                 -0.67232400   -1.56433700    0.37512600
 C                  0.66718300   -1.56653700    0.37512600
 C                 -1.56434000    0.67232400   -0.37512600
 C                 -1.56654000   -0.66718400   -0.37512600
 C                  1.56434000   -0.67232400   -0.37512600
 C                  1.56654000    0.66718400   -0.37512600
 H                  1.17541500    2.35555700    0.92896700
 H                 -1.16767300    2.35940300    0.92896700
 H                 -1.17541500   -2.35555700    0.92896700
 H                  1.16767300   -2.35940300    0.92896700
 H                 -2.35556000    1.17541600   -0.92896400
 H                 -2.35940700   -1.16767500   -0.92896400
 H                  2.35556000   -1.17541600   -0.92896400
 H                  2.35940700    1.16767500   -0.92896400  
  
