%nproc=8
%chk=G2-159.chk
#p b3lyp/6-311+G(d,p) opt freq

C6H5-CH3 (Toluene. Cs) Optimized Energy = -271.5666485

0 1
 C                 -0.00425400    0.91314500    0.00000000
 C                 -0.00746100    0.19425600    1.20062000
 C                 -0.00746100    0.19425600   -1.20062000
 C                 -0.00746100   -1.19956900    1.20350300
 C                 -0.00746100   -1.19956900   -1.20350300
 C                 -0.00654600   -1.90274300    0.00000000
 C                  0.02866000    2.42294000    0.00000000
 H                  1.06002500    2.79271300    0.00000000
 H                 -0.46495500    2.83279800   -0.88437800
 H                 -0.46495500    2.83279800    0.88437800
 H                 -0.01205700   -1.73602400    2.14614000
 H                 -0.01205700   -1.73602400   -2.14614000
 H                 -0.00947800   -2.98691800    0.00000000
 H                 -0.01231200    0.73218300    2.14360900
 H                 -0.01231200    0.73218300   -2.14360900  
  
