%nproc=8
%chk=G2-185.chk
#p b3lyp/6-311+G(d,p) opt freq

C4H8O2. cyc-CH2-CH2-O-CH2-CH2-O (para). C2h symmetry. Optimized Energy =
-307.658240. Local minimum.

0 1
 H                  0.56271600    1.15356500    2.02487500
 H                  0.56271600    1.15356500   -2.02487500
 C                  0.00000000   -0.76147400    1.17503600
 C                  0.00000000   -0.76147400   -1.17503600
 H                 -0.56271600   -1.15356500   -2.02487500
 C                  0.00000000    0.76147400   -1.17503600
 C                  0.00000000    0.76147400    1.17503600
 H                  1.03367000   -1.13381300    1.23089400
 H                  1.03367000   -1.13381300   -1.23089400
 O                 -0.63150200   -1.26498700    0.00000000
 H                 -1.03367000    1.13381300   -1.23089400
 H                 -1.03367000    1.13381300    1.23089400
 O                  0.63150200    1.26498700    0.00000000
 H                 -0.56271600   -1.15356500    2.02487500  
  
