%nproc=8
%chk=G2-184.chk
#p b3lyp/6-311+G(d,p) opt freq

(CH3)2CH-CHO. Cs symmetry. Optimized Energy = -232.458064. Local minimum.

0 1
 H                  0.30947900    0.56436300    2.17491500
 C                  0.03809200    1.11789700    1.27247800
 H                 -1.02938300    1.35570600    1.32698900
 C                  0.36555000    0.31696700    0.00000000
 H                  0.58863100    2.06224900    1.27644100
 C                 -0.42998300   -0.97146300    0.00000000
 H                  1.42365600    0.04006200    0.00000000
 C                  0.03809200    1.11789700   -1.27247800
 H                 -1.02938300    1.35570600   -1.32698900
 H                  0.30947900    0.56436300   -2.17491500
 H                  0.58863100    2.06224900   -1.27644100
 O                  0.03809200   -2.08285200    0.00000000
 H                 -1.53634500   -0.82966700    0.00000000  
  
