%nproc=8
%chk=G2-150.chk
#p b3lyp/6-311+G(d,p) opt freq

C5H8 isoprene H2C=CHC(CH3)=CH2 trans Optimized Energy = -195.3104538

0 1
 C                 -1.58450400   -0.91247800    0.00000200
 C                 -0.51541300   -0.10051400   -0.00000300
 C                  0.83457600   -0.67614300   -0.00000300
 C                  1.98464600    0.00815100    0.00000200
 C                 -0.66411400    1.40008600   -0.00000100
 H                 -1.47370700   -1.99164200    0.00000500
 H                 -2.59647500   -0.52374600    0.00000200
 H                  0.87466900   -1.76322500   -0.00000600
 H                  2.93961600   -0.50382600    0.00000300
 H                  2.01641300    1.09180100    0.00000600
 H                 -0.18781100    1.84333900   -0.88045800
 H                 -1.71598400    1.68935800   -0.00003000
 H                 -0.18786500    1.84332800    0.88049100  
  
