%nproc=8
%chk=G2-172.chk
#p b3lyp/6-311+G(d,p) opt freq

benzoquinone C6H4O2 Optimized Energy = -381.4516851

0 1
 C                  0.00000000    0.00000000    1.44272300
 C                  0.00000000    0.00000000   -1.44272300
 O                  0.00000000    0.00000000    2.66228000
 O                  0.00000000    0.00000000   -2.66228000
 C                  0.00000000    1.26876300    0.66981800
 C                  0.00000000   -1.26876300    0.66981800
 C                  0.00000000   -1.26876300   -0.66981800
 C                  0.00000000    1.26876300   -0.66981800
 H                  0.00000000    2.18126900    1.25590500
 H                  0.00000000   -2.18126900    1.25590500
 H                  0.00000000   -2.18126900   -1.25590500
 H                  0.00000000    2.18126900   -1.25590500  
  
