%nproc=8
%chk=G2-114.chk
#p b3lyp/6-311+G(d,p) opt freq

ETHANOL TRANS

0 1
 C                  1.17733900   -0.40123000    0.00000000
 C                  0.00000000    0.55564700    0.00000000
 O                 -1.20055100   -0.22171000    0.00000000
 H                 -1.95757400    0.37136200    0.00000000
 H                  0.03782700    1.20205300    0.88754400
 H                  0.03782700    1.20205300   -0.88754400
 H                  2.11977400    0.15333200    0.00000000
 H                  1.15125900   -1.04081300    0.88552700
 H                  1.15125900   -1.04081300   -0.88552700 
 
