%nproc=8
%chk=G2-125.chk
#p b3lyp/6-311+G(d,p) opt freq

CH3COOH ACETIC ACID single bonds TRANS

0 1
 C                  0.00000000    0.15623600    0.00000000
 O                  0.17613100    1.34805200    0.00000000
 O                 -1.24184100   -0.39498300    0.00000000
 H                 -1.87807600    0.33599700    0.00000000
 C                  1.07126900   -0.89967100    0.00000000
 H                  2.04993500   -0.42558100    0.00000000
 H                  0.96310400   -1.53718000    0.88046500
 H                  0.96310400   -1.53718000   -0.88046500 
 
