%nproc=8
%chk=G2-106.chk
#p b3lyp/6-311+G(d,p) opt freq

Aziridine. (cyclic CH2CH2NH). C2v symm.

0 1
 C                 -0.03811000   -0.39777800    0.74231700
 N                 -0.03811000    0.87412600    0.00000000
 C                 -0.03811000   -0.39777800   -0.74231700
 H                  0.89256700    1.28161700    0.00000000
 H                 -0.95446700   -0.60832400    1.28256200
 H                 -0.95446700   -0.60832400   -1.28256200
 H                  0.87022800   -0.70525800    1.25196300
 H                  0.87022800   -0.70525800   -1.25196300 
 
