%nproc=8
%chk=G2-169.chk
#p b3lyp/6-311+G(d,p) opt freq

C4H6O divinyl ether H2C=CH-O-CH=CH2 Optimized Energy = -231.1963671

0 1
 O                  0.00000000    0.00000000    0.32728500
 C                  0.00000000    1.17477900   -0.37294400
 C                  0.00000000   -1.17477900   -0.37294400
 C                  0.00000000    2.35458200    0.23676900
 C                  0.00000000   -2.35458200    0.23676900
 H                  0.00000000    1.06642700   -1.45453400
 H                  0.00000000   -1.06642700   -1.45453400
 H                  0.00000000    3.25985800   -0.35366000
 H                  0.00000000   -3.25985800   -0.35366000
 H                  0.00000000    2.43565300    1.31610900
 H                  0.00000000   -2.43565300    1.31610900  
  
