%nproc=8
%chk=G2-10.chk
#p b3lyp/6-311+G(d,p) opt freq

AMMONIA

0 1
 N                  0.00000000    0.00000000    0.10882700
 H                  0.00000000    0.94745500   -0.25393100
 H                  0.82052000   -0.47372700   -0.25393100
 H                 -0.82052000   -0.47372700   -0.25393100 
 
