%nproc=8
%chk=G2-177.chk
#p b3lyp/6-311+G(d,p) opt freq

C4H4N2. 1,4-dipyridine. D2h symmetry. Optimized Energy = -264.317235.
Local minimum.

0 1
 H                  0.00000000    2.06448200    1.25478300
 N                  0.00000000    0.00000000   -1.40422800
 N                  0.00000000    0.00000000    1.40422800
 C                  0.00000000    1.13252000   -0.69739400
 C                  0.00000000   -1.13252000   -0.69739400
 C                  0.00000000   -1.13252000    0.69739400
 C                  0.00000000    1.13252000    0.69739400
 H                  0.00000000    2.06448200   -1.25478300
 H                  0.00000000   -2.06448200   -1.25478300
 H                  0.00000000   -2.06448200    1.25478300  
  
