%nproc=8
%chk=G2-187.chk
#p b3lyp/6-311+G(d,p) opt freq

t-Butyl chloride. (CH3)3C-Cl. C3v symmetry. Optimized Energy =
-618.059615. Local minimum.

0 1
 Cl                 0.00000000    0.00000000    1.49423700
 C                  0.00000000    0.00000000   -0.37363600
 C                  0.00000000    1.46021700   -0.81738100
 C                  1.26458500   -0.73010800   -0.81738100
 C                 -1.26458500   -0.73010800   -0.81738100
 H                  0.00000000    1.50568500   -1.91179100
 H                  1.30396200   -0.75284300   -1.91179100
 H                 -1.30396200   -0.75284300   -1.91179100
 H                  0.88589200    1.98261500   -0.45199700
 H                 -0.88589200    1.98261500   -0.45199700
 H                  1.27404900   -1.75851300   -0.45199700
 H                  2.15994100   -0.22410300   -0.45199700
 H                 -2.15994100   -0.22410300   -0.45199700
 H                 -1.27404900   -1.75851300   -0.45199700  
  
