%nproc=8
%chk=G2-144.chk
#p b3lyp/6-311+G(d,p) opt freq

CH3S, 2A'

0 2
 C                 -0.00450500    1.11327500    0.00000000
 S                 -0.00450500   -0.69596200    0.00000000
 H                  1.04651800    1.42551000    0.00000000
 H                 -0.47370400    1.51511600    0.89873100
 H                 -0.47370400    1.51511600   -0.89873100 
 
