%nproc=8
%chk=G2-102.chk
#p b3lyp/6-311+G(d,p) opt freq

Methylsilane. CH3-SiH3. C3v symm.

0 1
 C                  0.00000000    0.00000000   -1.24778600
 Si                 0.00000000    0.00000000    0.63699200
 H                  0.00000000   -1.02066700   -1.63893000
 H                 -0.88392400    0.51033400   -1.63893000
 H                  0.88392400    0.51033400   -1.63893000
 H                  0.00000000    1.39160300    1.16187500
 H                 -1.20516300   -0.69580100    1.16187500
 H                  1.20516300   -0.69580100    1.16187500 
 
