%nproc=8
%chk=G2-127.chk
#p b3lyp/6-311+G(d,p) opt freq

CH3C(O)Cl HCCO cis

0 1
 C                  0.00000000    0.54426200    0.00000000
 C                  1.48683000    0.74288400    0.00000000
 Cl                -0.45161600   -1.23431200    0.00000000
 O                 -0.84850500    1.36534700    0.00000000
 H                  1.70654200    1.81005200    0.00000000
 H                  1.91899500    0.26379800    0.88073900
 H                  1.91899500    0.26379800   -0.88073900 
 
