%nproc=8
%chk=G2-197.chk
#p b3lyp/6-311+G(d,p) opt freq

2-methyl thiophene. cyc-CH=CH-S-CH(CH3)=CH-. Cs symmetry. Optimized Energy
= -592.321465. Local minimum.

0 1
 H                  0.04356000   -2.74097900    0.00000000
 S                 -1.08447900   -0.55451600    0.00000000
 C                  0.00000000    0.81657100    0.00000000
 H                  2.13754400    1.07548600    0.00000000
 H                  2.39083200   -1.54585900    0.00000000
 C                  0.23839000   -1.67960200    0.00000000
 C                  1.43823300   -1.03235600    0.00000000
 C                  1.29920000    0.38974800    0.00000000
 C                 -0.52078400    2.22206300    0.00000000
 H                  0.31550600    2.92424400    0.00000000
 H                 -1.13300500    2.43041000    0.88266800
 H                 -1.13300500    2.43041000   -0.88266800  
  
