%nproc=8
%chk=G2-203.chk
#p b3lyp/6-311+G(d,p) opt freq

Perhydropyridine. cyc-C5H10NH. Cs symmetry. Optimized Energy =
-251.903828. Local minimum.

0 1
 H                 -0.54193600   -1.20397900    2.08125100
 C                 -0.00969600   -0.78958200    1.22022900
 C                 -0.00969600   -0.78958200   -1.22022900
 C                  0.63855100    1.32965400    0.00000000
 C                 -0.00969600    0.74773400   -1.26536100
 C                 -0.00969600    0.74773400    1.26536100
 N                 -0.59708000   -1.35312200    0.00000000
 H                  1.02421700   -1.15292500   -1.28528300
 H                  1.70898900    1.08472000    0.00000000
 H                 -1.04489500    1.10524600   -1.34433200
 H                 -1.04489500    1.10524600    1.34433200
 H                 -1.60155200   -1.20068500    0.00000000
 H                  1.02421700   -1.15292500    1.28528300
 H                 -0.54193600   -1.20397900   -2.08125100
 H                  0.57003600    2.42214100    0.00000000
 H                  0.51435900    1.09661800   -2.16246100
 H                  0.51435900    1.09661800    2.16246100  
  
