%nproc=8
%chk=G2-24.chk
#p b3lyp/6-311+G(d,p) opt freq

ACETYLENE

0 1
 C                  0.00000000    0.00000000    0.59971600
 C                  0.00000000    0.00000000   -0.59971600
 H                  0.00000000    0.00000000   -1.66284900
 H                  0.00000000    0.00000000    1.66284900 
 
