%nproc=8
%chk=G2-221.chk
#p b3lyp/6-311+G(d,p) opt freq

C2F6 Optimized Energy = -675.2548542

0 1
 C                  0.00000000    0.00000000    0.77852800
 C                  0.00000000    0.00000000   -0.77852800
 F                  0.00000000    1.25625400    1.23371200
 F                 -1.08794800   -0.62812700    1.23371200
 F                  1.08794800   -0.62812700    1.23371200
 F                  0.00000000   -1.25625400   -1.23371200
 F                 -1.08794800    0.62812700   -1.23371200
 F                  1.08794800    0.62812700   -1.23371200  
  
