%nproc=8
%chk=G2-217.chk
#p b3lyp/6-311+G(d,p) opt freq

PCl3 C3v symmetry Optimized Energy = -1721.9990889

0 1
 P                  0.00000000    0.00000000    0.73435700
 Cl                 0.00000000    1.86726300   -0.21598700
 Cl                 1.61709700   -0.93363200   -0.21598700
 Cl                -1.61709700   -0.93363200   -0.21598700  
  
