%nproc=8
%chk=G2-207.chk
#p b3lyp/6-311+G(d,p) opt freq

Fluorobenzene. C2v symmetry. Optimized Energy = -331.482299. Local minimum.

0 1
 F                  0.00000000    0.00000000    2.28268300
 C                  0.00000000    0.00000000    0.92614400
 C                  0.00000000    1.21583200    0.25998300
 C                  0.00000000   -1.21583200    0.25998300
 C                  0.00000000    1.20676200   -1.13428200
 C                  0.00000000   -1.20676200   -1.13428200
 C                  0.00000000    0.00000000   -1.83323000
 H                  0.00000000    2.13900600    0.82611300
 H                  0.00000000   -2.13900600    0.82611300
 H                  0.00000000    2.14746200   -1.67277300
 H                  0.00000000   -2.14746200   -1.67277300
 H                  0.00000000    0.00000000   -2.91671800  
  
