%nproc=8
%chk=G2-26.chk
#p b3lyp/6-311+G(d,p) opt freq

ETHANE

0 1
 C                  0.00000000    0.00000000    0.76532100
 C                  0.00000000    0.00000000   -0.76532100
 H                  0.00000000    1.01855900    1.16372000
 H                 -0.88209800   -0.50928000    1.16372000
 H                  0.88209800   -0.50928000    1.16372000
 H                  0.00000000   -1.01855900   -1.16372000
 H                 -0.88209800    0.50928000   -1.16372000
 H                  0.88209800    0.50928000   -1.16372000 
 
