%nproc=8
%chk=G2-218.chk
#p b3lyp/6-311+G(d,p) opt freq

Cl2S2 C2 symmetry Optimized Energy = -1716.7588596

0 1
 S                  0.45547700    0.87731800    0.75324600
 S                 -0.45547700   -0.87731800    0.75324600
 Cl                -0.45547700    2.14658100   -0.70893800
 Cl                 0.45547700   -2.14658100   -0.70893800  
  
