%nproc=8
%chk=G2-212.chk
#p b3lyp/6-311+G(d,p) opt freq

SO3 D3h symmetry Optimized Energy = -623.7592008

0 1
 S                  0.00000000    0.00000000    0.00000000
 O                  0.00000000    1.44674900    0.00000000
 O                  1.25292100   -0.72337400    0.00000000
 O                 -1.25292100   -0.72337400    0.00000000  
  
