%nproc=8
%chk=G2-211.chk
#p b3lyp/6-311+G(d,p) opt freq

P4 Td symmetry Optimized Energy = -1365.441823

0 1
 P                  0.78497100    0.78497100    0.78497100
 P                 -0.78497100   -0.78497100    0.78497100
 P                  0.78497100   -0.78497100   -0.78497100
 P                 -0.78497100    0.78497100   -0.78497100  
  
