%nproc=8
%chk=G2-209.chk
#p b3lyp/6-311+G(d,p) opt freq

PF5 Optimized Energy = -840.676389

0 1
 P                  0.00000000    0.00000000    0.00000000
 F                  0.00000000    0.00000000    1.60417900
 F                  0.00000000    1.57071400    0.00000000
 F                  0.00000000    0.00000000   -1.60417900
 F                  1.36027900   -0.78535700    0.00000000
 F                 -1.36027900   -0.78535700    0.00000000  
  
