%nproc=8
%chk=G2-214.chk
#p b3lyp/6-311+G(d,p) opt freq

POCl3 C3v symmetry Optimized Energy = -1797.2335093

0 1
 P                  0.00000000    0.00000000    0.43115600
 O                  0.00000000    0.00000000    1.89585200
 Cl                 0.00000000    1.85312600   -0.42419900
 Cl                 1.60485400   -0.92656300   -0.42419900
 Cl                -1.60485400   -0.92656300   -0.42419900  
  
