%nproc=8
%chk=G2-204.chk
#p b3lyp/6-311+G(d,p) opt freq

(CH3)3C-O-CH3. t-butyl methyl ether. Cs symmetry. Optimized Energy =
-272.974778. Local minimum.

0 1
 H                 -1.43317100    2.12680600    0.00000000
 H                 -2.08592200    0.73228100    0.88465300
 H                 -2.08592200    0.73228100   -0.88465300
 H                  0.10129600    0.43884900    2.15848100
 H                  1.64037600    0.34387100    1.28153300
 H                  0.74411100    1.85983000    1.31731600
 O                 -0.44370700   -1.03542800    0.00000000
 C                 -0.14077600    0.37834700    0.00000000
 C                  0.63552500    0.77323000    1.26546900
 C                 -1.52232800    1.03737700    0.00000000
 C                  0.63552500    0.77323000   -1.26546900
 H                  1.64037600    0.34387100   -1.28153300
 H                  0.74411100    1.85983000   -1.31731600
 H                  0.10129600    0.43884900   -2.15848100
 C                  0.63552500   -1.95098700    0.00000000
 H                  0.18794800   -2.94585600    0.00000000
 H                  1.26716700   -1.85717900    0.89203800
 H                  1.26716700   -1.85717900   -0.89203800  
  
