%nproc=8
%chk=G2-222.chk
#p b3lyp/6-311+G(d,p) opt freq

CF3 Optimized Energy = -337.5509879

0 2
 C                  0.00000000    0.00000000    0.32711500
 F                  0.00000000    1.26193800   -0.07269200
 F                  1.09287000   -0.63096900   -0.07269200
 F                 -1.09287000   -0.63096900   -0.07269200  
  
