%nproc=8
%chk=G2-215.chk
#p b3lyp/6-311+G(d,p) opt freq

PCl5 D3h symmetry Optimized Energy = -2642.3568519

0 1
 P                  0.00000000    0.00000000    0.00000000
 Cl                 0.00000000    0.00000000    2.18912200
 Cl                 0.00000000    2.07174800    0.00000000
 Cl                 0.00000000    0.00000000   -2.18912200
 Cl                 1.79418600   -1.03587400    0.00000000
 Cl                -1.79418600   -1.03587400    0.00000000  
  
