%nproc=8
%chk=G2-208.chk
#p b3lyp/6-311+G(d,p) opt freq

(CH3)2CH-O-CH(CH3)2. Di-isopropyl ether. C2 symmetry. Optimized Energy =
-312.296751. Local minimum.

0 1
 O                  0.00000000    0.00000000    0.53050500
 C                 -0.32835900    1.17205000   -0.22627000
 C                  0.32835900   -1.17205000   -0.22627000
 C                  0.00000000    2.37260700    0.65307400
 C                  0.00000000   -2.37260700    0.65307400
 C                 -1.79837800    1.15087700   -0.65235400
 C                  1.79837800   -1.15087700   -0.65235400
 H                  0.30362000    1.20908300   -1.12505800
 H                 -0.30362000   -1.20908300   -1.12505800
 H                 -2.02882100    0.26640200   -1.25184300
 H                  2.02882100   -0.26640200   -1.25184300
 H                 -2.03969500    2.03276000   -1.25346100
 H                  2.03969500   -2.03276000   -1.25346100
 H                 -2.44527300    1.14406600    0.22928100
 H                  2.44527300   -1.14406600    0.22928100
 H                  1.05943100    2.37672900    0.91783700
 H                 -1.05943100   -2.37672900    0.91783700
 H                 -0.58272500    2.33198200    1.57755700
 H                  0.58272500   -2.33198200    1.57755700
 H                 -0.23574100    3.30747100    0.13697400
 H                  0.23574100   -3.30747100    0.13697400  
  
