%nproc=8
%chk=G2-220.chk
#p b3lyp/6-311+G(d,p) opt freq

CF3Cl Optimized Energy = -797.8167156

0 1
 C                  0.00000000    0.00000000   -0.35246800
 Cl                 0.00000000    0.00000000    1.42040500
 F                  0.00000000    1.24971600   -0.81600300
 F                  1.08228500   -0.62485800   -0.81600300
 F                 -1.08228500   -0.62485800   -0.81600300  
  
