%nproc=8
%chk=G2-34.chk
#p b3lyp/6-311+G(d,p) opt freq

H2NNH2

0 1
 N                  0.00000000    0.71556200   -0.07191200
 N                  0.00000000   -0.71556200   -0.07191200
 H                  0.23733900    1.11074800    0.83434600
 H                 -0.92656700    1.03242800   -0.33095900
 H                 -0.23733900   -1.11074800    0.83434600
 H                  0.92656700   -1.03242800   -0.33095900 
 
