%nproc=8
%chk=G2-32.chk
#p b3lyp/6-311+G(d,p) opt freq

METHANOL

0 1
 C                 -0.04644200    0.66545700    0.00000000
 O                 -0.04644200   -0.75765000    0.00000000
 H                 -1.09065700    0.97890900    0.00000000
 H                  0.86326100   -1.06832000    0.00000000
 H                  0.43879000    1.07893500    0.89289100
 H                  0.43879000    1.07893500   -0.89289100 
 
