%nproc=8
%chk=G2-53.chk
#p b3lyp/6-311+G(d,p) opt freq

H3C-SH METHANETHIOL STAGGERED

0 1
 C                 -0.04806100    1.16408300    0.00000000
 S                 -0.04806100   -0.67101800    0.00000000
 H                  1.29050800   -0.83610100    0.00000000
 H                 -1.09502000    1.46625700    0.00000000
 H                  0.43093300    1.56081800    0.89426800
 H                  0.43093300    1.56081800   -0.89426800 
 
