%nproc=8
%chk=G2-59.chk
#p b3lyp/6-311+G(d,p) opt freq

AlCl3

0 1
 Al                 0.00000000    0.00000000    0.00000000
 Cl                 0.00000000    2.08356900    0.00000000
 Cl                 1.80442400   -1.04178500    0.00000000
 Cl                -1.80442400   -1.04178500    0.00000000 
 
