%nproc=8
%chk=G2-56.chk
#p b3lyp/6-311+G(d,p) opt freq

BF3 PLANAR

0 1
 B                  0.00000000    0.00000000    0.00000000
 F                  0.00000000    1.31744900    0.00000000
 F                  1.14094400   -0.65872400    0.00000000
 F                 -1.14094400   -0.65872400    0.00000000 
 
