%nproc=8
%chk=G2-51.chk
#p b3lyp/6-311+G(d,p) opt freq

Si2H6

0 1
 Si                 0.00000000    0.00000000    1.17715600
 Si                 0.00000000    0.00000000   -1.17715600
 H                  0.00000000    1.39398700    1.69479800
 H                 -1.20722900   -0.69699400    1.69479800
 H                  1.20722900   -0.69699400    1.69479800
 H                  0.00000000   -1.39398700   -1.69479800
 H                 -1.20722900    0.69699400   -1.69479800
 H                  1.20722900    0.69699400   -1.69479800 
 
