%nproc=8
%chk=G2-58.chk
#p b3lyp/6-311+G(d,p) opt freq

AlF3

0 1
 Al                 0.00000000    0.00000000    0.00000000
 F                  0.00000000    1.65669900    0.00000000
 F                  1.43474400   -0.82835000    0.00000000
 F                 -1.43474400   -0.82835000    0.00000000 
 
