%nproc=8
%chk=G2-64.chk
#p b3lyp/6-311+G(d,p) opt freq

COF2

0 1
 O                  0.00000000    0.00000000    1.31718600
 C                  0.00000000    0.00000000    0.14624300
 F                  0.00000000    1.06672900   -0.63416400
 F                  0.00000000   -1.06672900   -0.63416400 
 
