%nproc=8
%chk=G2-6.chk
#p b3lyp/6-311+G(d,p) opt freq

Methyl radical, D3h

0 2
 C                  0.00000000    0.00000000    0.00000000
 H                  0.00000000    1.08062300    0.00000000
 H                  0.93584700   -0.54031200    0.00000000
 H                 -0.93584700   -0.54031200    0.00000000 
 
