%nproc=8
%chk=G2-61.chk
#p b3lyp/6-311+G(d,p) opt freq

CCl4

0 1
 C                  0.00000000    0.00000000    0.00000000
 Cl                 1.03443700    1.03443700    1.03443700
 Cl                -1.03443700   -1.03443700    1.03443700
 Cl                -1.03443700    1.03443700   -1.03443700
 Cl                 1.03443700   -1.03443700   -1.03443700 
 
