%nproc=8
%chk=G2-65.chk
#p b3lyp/6-311+G(d,p) opt freq

SiF4

0 1
 Si                 0.00000000    0.00000000    0.00000000
 F                  0.91470400    0.91470400    0.91470400
 F                 -0.91470400   -0.91470400    0.91470400
 F                 -0.91470400    0.91470400   -0.91470400
 F                  0.91470400   -0.91470400   -0.91470400 
 
