%nproc=8
%chk=G2-60.chk
#p b3lyp/6-311+G(d,p) opt freq

CF4

0 1
 C                  0.00000000    0.00000000    0.00000000
 F                  0.76693100    0.76693100    0.76693100
 F                 -0.76693100   -0.76693100    0.76693100
 F                 -0.76693100    0.76693100   -0.76693100
 F                  0.76693100   -0.76693100   -0.76693100 
 
