%nproc=8
%chk=G2-7.chk
#p b3lyp/6-311+G(d,p) opt freq

CH4

0 1
 C                  0.00000000    0.00000000    0.00000000
 H                  0.62984300    0.62984300    0.62984300
 H                 -0.62984300   -0.62984300    0.62984300
 H                  0.62984300   -0.62984300   -0.62984300
 H                 -0.62984300    0.62984300   -0.62984300 
 
