%nproc=8
%chk=G2-76.chk
#p b3lyp/6-311+G(d,p) opt freq

CF3CN

0 1
 C                  0.00000000    0.00000000   -0.31945100
 C                  0.00000000    0.00000000    1.16022100
 F                  0.00000000    1.25506200   -0.78569500
 F                  1.08691500   -0.62753100   -0.78569500
 F                 -1.08691500   -0.62753100   -0.78569500
 N                  0.00000000    0.00000000    2.30987700 
 
