%nproc=8
%chk=G2-74.chk
#p b3lyp/6-311+G(d,p) opt freq

CF2=CF2 D2H SINGLET

0 1
 C                  0.00000000    0.00000000    0.66125000
 C                  0.00000000    0.00000000   -0.66125000
 F                  0.00000000    1.10240200    1.38884500
 F                  0.00000000   -1.10240200    1.38884500
 F                  0.00000000    1.10240200   -1.38884500
 F                  0.00000000   -1.10240200   -1.38884500 
 
