%nproc=8
%chk=G2-86.chk
#p b3lyp/6-311+G(d,p) opt freq

Bicyclo[1.1.0]butane. C2v symm.

0 1
 C                  0.00000000    1.13742500    0.31340400
 C                  0.00000000   -1.13742500    0.31340400
 C                  0.74604300    0.00000000   -0.31775500
 C                 -0.74604300    0.00000000   -0.31775500
 H                  0.00000000    1.23767600    1.40007000
 H                  0.00000000    2.08326200   -0.22169800
 H                  0.00000000   -1.23767600    1.40007000
 H                  0.00000000   -2.08326200   -0.22169800
 H                  1.42892300    0.00000000   -1.15226700
 H                 -1.42892300    0.00000000   -1.15226700 
 
