%nproc=8
%chk=G2-89.chk
#p b3lyp/6-311+G(d,p) opt freq

Isobutene. Single bonds trans. C2v symm.

0 1
 C                  0.00000000    0.00000000    1.45852300
 C                  0.00000000    0.00000000    0.12374000
 H                  0.00000000    0.92397100    2.02713100
 H                  0.00000000   -0.92397100    2.02713100
 C                  0.00000000    1.27586700   -0.67876500
 H                  0.00000000    2.15884400   -0.03704600
 H                  0.87881300    1.32581000   -1.33214300
 H                 -0.87881300    1.32581000   -1.33214300
 C                  0.00000000   -1.27586700   -0.67876500
 H                  0.00000000   -2.15884400   -0.03704600
 H                 -0.87881300   -1.32581000   -1.33214300
 H                  0.87881300   -1.32581000   -1.33214300 
 
