%nproc=8
%chk=G2-82.chk
#p b3lyp/6-311+G(d,p) opt freq

PROPANE C2V

0 1
 C                  0.00000000    0.00000000    0.58577400
 C                  0.00000000    1.27707700   -0.25961800
 C                  0.00000000   -1.27707700   -0.25961800
 H                 -0.87544600    0.00000000    1.24503200
 H                  0.87544600    0.00000000    1.24503200
 H                  0.00000000    2.17376500    0.36632100
 H                  0.00000000   -2.17376500    0.36632100
 H                  0.88272100    1.32236100   -0.90548500
 H                 -0.88272100    1.32236100   -0.90548500
 H                 -0.88272100   -1.32236100   -0.90548500
 H                  0.88272100   -1.32236100   -0.90548500 
 
