%nproc=8
%chk=G2-88.chk
#p b3lyp/6-311+G(d,p) opt freq

CYCLOBUTANE

0 1
 C                  0.00000000    1.08498300    0.12344700
 C                  0.00000000   -1.08498300    0.12344700
 C                 -1.08498300    0.00000000   -0.12344700
 C                  1.08498300    0.00000000   -0.12344700
 H                  0.00000000    1.96172400   -0.52759600
 H                  0.00000000    1.42488000    1.16242700
 H                  0.00000000   -1.96172400   -0.52759600
 H                  0.00000000   -1.42488000    1.16242700
 H                 -1.96172400    0.00000000    0.52759600
 H                 -1.42488000    0.00000000   -1.16242700
 H                  1.96172400    0.00000000    0.52759600
 H                  1.42488000    0.00000000   -1.16242700 
 
