%nproc=8
%chk=G2-83.chk
#p b3lyp/6-311+G(d,p) opt freq

TRANS-1,3-BUTADIENE C2H

0 1
 C                  0.60128800    1.74911800    0.00000000
 C                  0.60128800    0.41077600    0.00000000
 C                 -0.60128800   -0.41077600    0.00000000
 C                 -0.60128800   -1.74911800    0.00000000
 H                  1.52323500    2.31803800    0.00000000
 H                 -0.32473200    2.31580700    0.00000000
 H                  1.54993200   -0.12256900    0.00000000
 H                 -1.54993200    0.12256900    0.00000000
 H                  0.32473200   -2.31580700    0.00000000
 H                 -1.52323500   -2.31803800    0.00000000 
 
