%nproc=8
%chk=G2-87.chk
#p b3lyp/6-311+G(d,p) opt freq

CYCLOBUTENE

0 1
 C                  0.00000000    0.66940700    0.81435000
 C                  0.00000000   -0.66940700    0.81435000
 C                  0.00000000    0.78659600   -0.70021400
 C                  0.00000000   -0.78659600   -0.70021400
 H                  0.00000000    1.41500600    1.60152300
 H                  0.00000000   -1.41500600    1.60152300
 H                  0.88866800    1.24610300   -1.14316900
 H                 -0.88866800    1.24610300   -1.14316900
 H                 -0.88866800   -1.24610300   -1.14316900
 H                  0.88866800   -1.24610300   -1.14316900 
 
