%nproc=8
%chk=G2-90.chk
#p b3lyp/6-311+G(d,p) opt freq

Trans butane

0 1
 C                  0.70376800    1.83518000    0.00000000
 C                  0.70376800    0.30396700    0.00000000
 C                 -0.70376800   -0.30396700    0.00000000
 C                 -0.70376800   -1.83518000    0.00000000
 H                  1.72086000    2.23661100    0.00000000
 H                 -1.72086000   -2.23661100    0.00000000
 H                  0.19101700    2.23021600    0.88272500
 H                  0.19101700    2.23021600   -0.88272500
 H                 -0.19101700   -2.23021600    0.88272500
 H                 -0.19101700   -2.23021600   -0.88272500
 H                  1.25317900   -0.06214900   -0.87605200
 H                  1.25317900   -0.06214900    0.87605200
 H                 -1.25317900    0.06214900   -0.87605200
 H                 -1.25317900    0.06214900    0.87605200 
 
