%nproc=8
%chk=G2-99.chk
#p b3lyp/6-311+G(d,p) opt freq

Acetonitrile. CH3-CN. C3v symm.

0 1
 C                  0.00000000    0.00000000   -1.17595000
 C                  0.00000000    0.00000000    0.28044200
 N                  0.00000000    0.00000000    1.43304500
 H                  0.00000000    1.02475500   -1.55275500
 H                  0.88746300   -0.51237700   -1.55275500
 H                 -0.88746300   -0.51237700   -1.55275500 
 
