%nproc=8
%chk=G2-91.chk
#p b3lyp/6-311+G(d,p) opt freq

isobutane

0 1
 C                  0.00000000    0.00000000    0.37209600
 H                  0.00000000    0.00000000    1.47017900
 C                  0.00000000    1.46147700   -0.09576000
 H                  0.00000000    1.52001300   -1.19004300
 H                 -0.88413700    1.99553400    0.26517700
 H                  0.88413700    1.99553400    0.26517700
 C                  1.26567700   -0.73073900   -0.09576000
 H                  1.31637000   -0.76000700   -1.19004300
 H                  2.17025200   -0.23208200    0.26517700
 H                  1.28611400   -1.76345200    0.26517700
 C                 -1.26567700   -0.73073900   -0.09576000
 H                 -1.31637000   -0.76000700   -1.19004300
 H                 -1.28611400   -1.76345200    0.26517700
 H                 -2.17025200   -0.23208200    0.26517700 
 
