%nproc=8
%chk=G2-96.chk
#p b3lyp/6-311+G(d,p) opt freq

CH2CL2 C2V

0 1
 C                  0.00000000    0.00000000    0.76899100
 Cl                 0.00000000    1.49517200   -0.21657800
 Cl                 0.00000000   -1.49517200   -0.21657800
 H                 -0.89910200    0.00000000    1.37484800
 H                  0.89910200    0.00000000    1.37484800 
 
