%nproc=8
%chk=G2-93.chk
#p b3lyp/6-311+G(d,p) opt freq

Benzene

0 1
 C                  0.00000000    1.39470800    0.00000000
 C                  1.20785300    0.69735400    0.00000000
 C                  1.20785300   -0.69735400    0.00000000
 C                  0.00000000   -1.39470800    0.00000000
 C                 -1.20785300   -0.69735400    0.00000000
 C                 -1.20785300    0.69735400    0.00000000
 H                  0.00000000    2.47914600    0.00000000
 H                  2.14700300    1.23957300    0.00000000
 H                  2.14700300   -1.23957300    0.00000000
 H                  0.00000000   -2.47914600    0.00000000
 H                 -2.14700300   -1.23957300    0.00000000
 H                 -2.14700300    1.23957300    0.00000000 
 
