%nproc=8
%chk=G2-92.chk
#p b3lyp/6-311+G(d,p) opt freq

Spiropentane. D2d symm.

0 1
 C                  0.00000000    0.00000000    0.00000000
 C                  0.00000000    0.76567800    1.27019200
 C                  0.00000000   -0.76567800    1.27019200
 C                  0.76567800    0.00000000   -1.27019200
 C                 -0.76567800    0.00000000   -1.27019200
 H                 -0.91296200    1.26761400    1.57308300
 H                  0.91296200    1.26761400    1.57308300
 H                 -0.91296200   -1.26761400    1.57308300
 H                  0.91296200   -1.26761400    1.57308300
 H                  1.26761400   -0.91296200   -1.57308300
 H                  1.26761400    0.91296200   -1.57308300
 H                 -1.26761400   -0.91296200   -1.57308300
 H                 -1.26761400    0.91296200   -1.57308300 
 
