%nproc=8
%chk=G2-94.chk
#p b3lyp/6-311+G(d,p) opt freq

DIFLUOROMETHANE C2V

0 1
 C                  0.00000000    0.00000000    0.50669200
 F                  0.00000000    1.10891700   -0.29150100
 F                  0.00000000   -1.10891700   -0.29150100
 H                 -0.91374600    0.00000000    1.10343200
 H                  0.91374600    0.00000000    1.10343200 
 
