#p b3lyp 6-311+g(3df,2p) scf=tight nosymm

b2h6

0    1
    B      0.00000000      0.00000000      0.87888397
    B      0.00000000      0.00000000     -0.87888397
    H      0.00000000      0.97521010      0.00000000
    H      0.00000000     -0.97521010      0.00000000
    H     -1.03964271      0.00000000      1.45232685
    H      1.03964271      0.00000000      1.45232685
    H      1.03964271      0.00000000     -1.45232685
    H     -1.03964271      0.00000000     -1.45232685
 
 
 
