#p b3lyp 6-311+g(3df,2p) scf=tight nosymm

c2h6

0    1
    C      0.00000000      0.00000000      0.76325794
    C      0.00000000      0.00000000     -0.76325794
    H     -0.88068553      0.50846403      1.15784282
    H      0.00000000     -1.01692806      1.15784282
    H      0.88068553      0.50846403      1.15784282
    H      0.88068553     -0.50846403     -1.15784282
    H     -0.88068553     -0.50846403     -1.15784282
    H      0.00000000      1.01692806     -1.15784282
 
 
 
