#p b3lyp 6-311+g(3df,2p) scf=tight nosymm

ch2nh2

0    2
    C     -0.67797747      0.01592403      0.00000000
    H     -1.17993601     -0.20967344      0.92885427
    H     -1.17993601     -0.20967344     -0.92885427
    N      0.71360982     -0.10337667      0.00000000
    H      1.16211984      0.25339976     -0.82868588
    H      1.16211984      0.25339976      0.82868588
 
 
 
