#p b3lyp 6-311+g(3df,2p) scf=tight nosymm

ch3nh

0    2
    C     -0.34400957     -0.14803959      0.00000000
    H     -0.70650941      0.40111054      0.87821482
    H     -0.78528285     -1.14280052      0.00000000
    H     -0.70650941      0.40111054     -0.87821482
    N      1.09727985     -0.23715832      0.00000000
    H      1.44503139      0.72577736      0.00000000
 
 
 
