#p b3lyp 6-311+g(3df,2p) scf=tight nosymm

ch4

0    1
    H      0.62809914      0.62809914     -0.62809914
    C      0.00000000      0.00000000      0.00000000
    H     -0.62809914     -0.62809914     -0.62809914
    H      0.62809914     -0.62809914      0.62809914
    H     -0.62809914      0.62809914      0.62809914
 
 
 
