#p b3lyp 6-311+g(3df,2p) scf=tight nosymm

n2h4

0    1
    N      0.71663435     -0.06035540      0.23275048
    N     -0.71663435      0.06035540      0.23275048
    H      1.06343693     -0.30618855     -0.68741751
    H      1.08508932      0.85402452      0.45466703
    H     -1.06343693      0.30618855     -0.68741751
    H     -1.08508932     -0.85402452      0.45466703
 
 
 
