#p b3lyp 6-311+g(3df,2p) scf=tight nosymm

si2h6

0    1
   Si      0.00000000      0.00000000     -1.17088423
    H     -1.20459977     -0.69547600     -1.68477798
    H      0.00000000      1.39095200     -1.68477798
    H      1.20459977     -0.69547600     -1.68477798
   Si      0.00000000      0.00000000      1.17088423
    H      1.20459977      0.69547600      1.68477798
    H     -1.20459977      0.69547600      1.68477798
    H      0.00000000     -1.39095200      1.68477798
 
 
 
