%nproc=8
%chk=methane2.chk
#p b3lyp 6-311+g(3df,2p) scf=tight nosymm

4.6 Estimated CCSD(T)/aug-cc-pVQZ* Level of Theory using Frozen Monomers

0    1
C 0.000000  0.000000  2.300000
H 0.000000  0.000000  3.399503
H 1.036621  0.000000  1.933499
H -0.518311  0.897740  1.933499
H -0.518311  -0.897740  1.933499
C 0.000000  0.000000  -2.300000
H 0.000000  0.000000  -3.399503
H -1.036621  0.000000  -1.933499
H 0.518311  -0.897740  -1.933499
H 0.518311  0.897740  -1.933499
 
 
 
