%nproc=8
%chk=methane2.chk
#p b3lyp 6-311+g(3df,2p) scf=tight nosymm

Methane Monomer Estimated CCSD(T)/aug-cc-pVQZ* Level of Theory using Frozen Monomers

0    1
C 0.000000  0.000000  2.900000
H 0.000000  0.000000  3.999503
H 1.036621  0.000000  2.533499
H -0.518311  0.897740  2.533499
H -0.518311  -0.897740  2.533499
 
 
 
