#p b3lyp/6-31G scf=tight

pccp20

0 1
 N   2.0113587   -1.2132073   -0.0980673
 C   2.0257076   -0.6971797   -1.3644029
 H   2.2975208   -1.3910592   -2.1456459
 C   1.7145226   0.5919651   -1.6124892
 H   1.7272873   0.9908466   -2.612005
 C   1.3089605   1.457534   -0.520589
 O   0.9205926   2.6110864   -0.6260457
 N   1.3768885   0.8397454   0.7346356
 H   1.051804   1.3862229   1.523371
 C   1.6459909   -0.4852113   1.0187267
 O   1.561109   -0.9718061   2.1298059
 H   2.1294635   -2.2015046   0.0568134
 N   -2.0113587   1.2132073   -0.0980673
 C   -2.0257076   0.6971797   -1.3644029
 H   -2.2975208   1.3910592   -2.1456459
 C   -1.7145226   -0.5919651   -1.6124892
 H   -1.7272873   -0.9908466   -2.612005
 C   -1.3089605   -1.457534   -0.520589
 O   -0.9205926   -2.6110864   -0.6260457
 N   -1.3768885   -0.8397454   0.7346356
 H   -1.051804   -1.3862229   1.523371
 C   -1.6459909   0.4852113   1.0187267
 O   -1.561109   0.9718061   2.1298059
 H   -2.1294635   2.2015046   0.0568134

