#p b3lyp 6-311+g(3df,2p) scf=tight nosymm

c2h4

0    1
    C      0.00000000      0.00000000      0.66559380
    C      0.00000000      0.00000000     -0.66559380
    H      0.00000000      0.92149332      1.23167054
    H      0.00000000     -0.92149332      1.23167054
    H      0.00000000      0.92149332     -1.23167054
    H      0.00000000     -0.92149332     -1.23167054
 
 
 
