#p b3lyp 6-311+g(3df,2p) scf=tight nosymm

c2h5ts

0    2
    C     -0.56787594      0.00005100     -0.21895818
    C      0.75114059     -0.00003600      0.04193200
    H     -1.49388314     -0.00048800      1.53176694
    H     -1.10169403      0.92065193     -0.40862641
    H     -1.10202212     -0.92023388     -0.40911008
    H      1.29913005     -0.92234529      0.17376327
    H      1.29889721      0.92232413      0.17436283
 
 
 
