#p b3lyp 6-311+g(3df,2p) scf=tight nosymm

ch3f

0    1
    C      0.00000000      0.00000000      0.06556636
    F      0.00000000      0.00000000     -1.31562849
    H      0.51491630     -0.89186118      0.41668738
    H      0.51491630      0.89186118      0.41668738
    H     -1.02983259      0.00000000      0.41668738
 
 
 
