#p b3lyp 6-311+g(3df,2p) scf=tight nosymm

CH4

0    1
    C      0.00000000      0.00000000      0.00000000
    H      0.62783701      0.62783701      0.62783701
    H     -0.62783701     -0.62783701      0.62783701
    H      0.62783701     -0.62783701     -0.62783701
    H     -0.62783701      0.62783701     -0.62783701
 
 
 
