#p b3lyp 6-311+g(3df,2p) scf=tight nosymm

clch3clcomp

-1    1
   Cl      0.00000000      0.00000000     -2.21807229
    C      0.00000000      0.00000000     -0.39966594
    H     -0.51253194      0.88773136     -0.05771427
    H     -0.51253194     -0.88773136     -0.05771427
    H      1.02506388      0.00000000     -0.05771427
   Cl      0.00000000      0.00000000      2.79088105
 
 
 
