#p b3lyp 6-311+g(3df,2p) scf=tight nosymm

fch3fts

-1    1
    F      1.82365050      0.00022200      0.00007700
    C      0.00023600     -0.00038700     -0.00021400
    H      0.00015600     -0.30518602      1.02503742
    H      0.00037900      1.03988084     -0.24896412
    H     -0.00000300     -0.73655647     -0.77620772
    F     -1.82386746      0.00024300      0.00008100
 
 
 
