#p b3lyp 6-311+g(3df,2p) scf=tight nosymm

fch3clts

-1    1
    F      0.00000000      0.00000000     -1.99680875
    C      0.00000000      0.00000000      0.05274750
    H     -0.53104256      0.91979269     -0.07385285
    H     -0.53104256     -0.91979269     -0.07385285
    H      1.06208512      0.00000000     -0.07385285
   Cl      0.00000000      0.00000000      2.16561981
 
 
 
