#p b3lyp 6-311+g(3df,2p) scf=tight nosymm

fch3clcomp1

-1    1
   Cl      0.00000000      0.00000000      2.12296416
    C      0.00000000      0.00000000      0.27246585
    H     -0.51316166     -0.88882207     -0.05531445
    H     -0.51316166      0.88882207     -0.05531445
    H      1.02632332      0.00000000     -0.05531445
    F      0.00000000      0.00000000     -2.22948665
 
 
 
