#p b3lyp 6-311+g(3df,2p) scf=tight nosymm

fch3fcomp

-1    1
    F      0.00000000      0.00000000     -1.79137122
    C      0.00000000      0.00000000     -0.36561700
    H     -0.51179109      0.88644818     -0.01758668
    H     -0.51179109     -0.88644818     -0.01758668
    H      1.02358219      0.00000000     -0.01758668
    F      0.00000000      0.00000000      2.20974825
 
 
 
