#p b3lyp 6-311+g(3df,2p) scf=tight nosymm

RKT04

0    1
    C     -1.21148772      0.00796798      0.00040700
    O      1.29396528     -0.10869406      0.00013300
    H      0.00947603     -0.11802028      0.00279900
    H     -1.52552794     -0.23325020      1.01007229
    H     -1.43066763      1.03323438     -0.27808209
    H     -1.55271177     -0.71011348     -0.73770478
    H      1.41663914      0.84989564     -0.00059100
 
 
 
