#p b3lyp 6-311+g(3df,2p) scf=tight nosymm

RKT05

0    1
    C     -0.48453900     -0.32822111      0.03926902
    O      0.81590659      0.12088895     -0.11880293
    H      1.07848961      0.60714618      0.66317017
    H     -0.70756285     -0.76318466      1.01289810
    H     -0.75485541     -0.97132064     -0.79086592
    H     -1.32491156      0.68008267     -0.05383479
    H     -1.91118170      1.44949575     -0.11656186
 
 
 
