#p b3lyp 6-311+g(3df,2p) scf=tight nosymm

RKT15

0    1
    H     -1.47757919     -0.20939807      0.00045400
    N     -0.60447913      0.33714303     -0.00007900
    N      0.32701723     -0.45957612      0.00004600
    H      1.27067619      0.13968479     -0.00081200
    H      2.14914740      0.92674276      0.00058700
 
 
 
