#p b3lyp 6-311+g(3df,2p) scf=tight nosymm

H_ttt

0    1
    C      1.41517990      2.86928679      0.00000000
    C      1.41517990      1.34616790      0.00000000
    C      0.00893100      0.76126394      0.00000000
    C     -0.00893100     -0.76126394      0.00000000
    C     -1.41517990     -1.34616790      0.00000000
    C     -1.41517990     -2.86928679      0.00000000
    H      0.90091593      3.25586576      0.87966294
    H      0.90091593      3.25586576     -0.87966294
    H      2.42662382      3.27249276      0.00000000
    H      1.95590786      0.97731593      0.87446594
    H      1.95590786      0.97731593     -0.87446594
    H     -0.53419696      1.12923592     -0.87527294
    H     -0.53419696      1.12923592      0.87527294
    H      0.53419696     -1.12923592      0.87527294
    H      0.53419696     -1.12923592     -0.87527294
    H     -1.95590786     -0.97731593     -0.87446594
    H     -1.95590786     -0.97731593      0.87446594
    H     -2.42662382     -3.27249276      0.00000000
    H     -0.90091593     -3.25586576      0.87966294
    H     -0.90091593     -3.25586576     -0.87966294
 
 
 
