#p b3lyp 6-311+g(3df,2p) scf=tight nosymm

P_TG

0    1
    C      2.40608230     -0.14162546      0.10814193
    C      0.96322140     -0.33351645     -0.34123203
    C      0.03678447      0.73127548      0.23387992
    C     -1.40381443      0.63605148     -0.26115904
    C     -2.10514438     -0.65011842      0.16053493
    H      3.06171125     -0.90766440     -0.30292004
    H     -1.41327043      0.71871848     -1.35063096
    H     -1.96681939      1.49078942      0.11754793
    H      2.48072429     -0.18560946      1.19468285
    H      2.78478127      0.82969647     -0.20961404
    H      0.43942844      1.71568940     -0.01793006
    H      0.04788947      0.66405948      1.32597984
    H      0.90854540     -0.30118045     -1.43234595
    H      0.62069943     -1.32514337     -0.04290206
    H     -3.15013230     -0.64777142     -0.14552505
    H     -1.63560841     -1.52720736     -0.28093804
    H     -2.07507838     -0.76644341      1.24442985
 
 
 
