#p b3lyp 6-311+g(3df,2p) scf=tight nosymm

H2O20fs

0    1
    O     -0.46743367     -1.41564323      2.34248318
    H     -0.51038811     -0.53277854      2.73835090
    H     -1.15437101     -1.41354190      1.63906025
    O     -1.18049526     -4.41148898     -2.02178786
    H     -1.60059514     -5.08049948     -2.56840609
    H     -1.62965894     -4.44434915     -1.13069219
    O     -0.38908220     -4.34161865      2.36492170
    H     -0.41223184     -3.42543741      2.67802975
    H      0.49544704     -4.45168117      1.97664113
    O     -2.37082700     -1.40107480      0.33173876
    H     -2.76870534     -0.51906040      0.37643929
    H     -1.90081326     -1.43127763     -0.53145606
    O     -1.04122148     -1.57734287     -2.08986479
    H     -0.07409516     -1.54785769     -1.91829763
    H     -1.22108276     -2.50288932     -2.33342691
    O      1.64030315     -4.35198479     -1.60309681
    H      0.69076372     -4.47911779     -1.78646000
    H      1.82344276     -3.43324878     -1.85485911
    O     -2.33246396     -4.31911085      0.37106629
    H     -1.67491652     -4.41614987      1.09456730
    H     -2.66334406     -3.41305946      0.45871353
    O      1.67874010     -1.46765795     -1.58954982
    H      1.80424908     -1.46838084     -0.61352217
    H      1.96912839     -0.59218615     -1.88710449
    O      2.01777881     -1.57002443      1.14573363
    H      1.13432625     -1.53677829      1.57643154
    H      2.31871660     -2.48990233      1.25419412
    O      2.18246223     -4.39307413      1.03117360
    H      2.85543486     -5.04634684      1.23844941
    H      2.00311263     -4.46273081      0.05737088
    O     -0.41524006      4.38425050      2.28761383
    H     -0.56798343      5.06537002      2.94793037
    H     -1.11277010      4.48765406      1.60382644
    O     -1.10466137      1.27600415     -2.07868078
    H     -1.27379346      0.38605846     -2.42789271
    H     -1.54213980      1.29739414     -1.19846564
    O     -0.33434173      1.48216101      2.31578368
    H      0.53480352      1.41014012      1.86066356
    H     -0.37971620      2.39860092      2.62949130
    O     -2.27499134      4.37689456      0.23399603
    H     -1.79885168      4.34628941     -0.64275512
    H     -2.98125645      5.02134826      0.13714787
    O     -0.99338228      4.14316441     -2.08436269
    H     -0.02988516      4.27010648     -2.00227474
    H     -1.10878833      3.22161927     -2.36880394
    O      1.63443859      1.39542885     -1.69182884
    H      0.66380607      1.36084611     -1.84129943
    H      1.89368116      2.30768057     -1.90402977
    O     -2.32150842      1.47851628      0.39292657
    H     -2.62500911      2.40010875      0.38783126
    H     -1.61926122      1.45253183      1.08120563
    O      1.81454146      4.24910979     -1.64993597
    H      2.40209088      4.89002947     -2.05851386
    H      1.98093741      4.28431003     -0.67211547
    O      2.16929494      4.13201692      1.01247942
    H      2.38101983      3.20111140      1.19335497
    H      1.33728682      4.30083391      1.48662783
    O      2.09581077      1.26959951      1.02272667
    H      2.41832643      0.37685258      1.22847581
    H      1.93536235      1.27026277      0.05203638
 
 
 
