#p b3lyp 6-311+g(3df,2p) scf=tight nosymm

H2O20

0    1
    O      1.59729525      3.63429294      0.11656280
    O      3.45700312      1.54578067      0.87150444
    O     -0.57424000      3.48895605      1.79563753
    O      0.62956015      2.90309909     -2.48032884
    O      2.56288702      0.23804227      2.97580154
    O     -0.00612538      1.30309044      3.62506871
    O      3.66947576     -0.19202243     -1.25079829
    O     -2.65881760      2.72445061      0.37113454
    O      1.93651793      0.59106019     -3.38880869
    O     -1.98195259      2.48992643     -2.33899772
    O      2.03566426     -2.40181642      2.17872741
    O     -1.88457924     -0.66872130      3.29975757
    O      2.79321486     -2.79841872     -0.30204575
    O     -3.71350374      0.20903273      1.22628520
    O      0.10627254     -1.29328100     -3.64857370
    O     -2.38129579     -0.25899357     -3.05307273
    O     -0.72796846     -2.90245513      2.55159243
    O      0.59415141     -3.46115299     -1.78412903
    O     -3.48342485     -1.66515384     -0.76020997
    O     -1.66479639     -3.42655878     -0.03889926
    H      0.83665719      3.64980006      0.74069492
    H      1.98697462      4.51265067      0.13636025
    H      2.85315824      2.25524771      0.59910117
    H      3.55644275      0.95286634      0.09249705
    H     -0.86034602      4.25747332      2.29711507
    H     -1.36761548      3.19806126      1.25971415
    H      1.00581723      3.13542912     -1.61403485
    H      1.11761888      2.11793089     -2.79778726
    H      3.22188521      0.33396448      3.66875955
    H      2.91731098      0.73623703      2.18258827
    H      0.88688018      0.97039105      3.42273822
    H     -0.15837748      2.04799939      3.02124743
    H      3.37308306     -1.07357470     -0.97152904
    H      3.10508973      0.05399597     -2.00513496
    H     -2.46565619      2.66105511     -0.58482478
    H     -3.03022595      1.86422373      0.63494994
    H      1.24489375     -0.12266491     -3.50322956
    H      2.36859470      0.68444004     -4.24218842
    H     -2.39880563      3.10361865     -2.94993445
    H     -0.99908536      2.65096086     -2.40915621
    H      1.08941304     -2.56735332      2.34852709
    H      2.21995538     -1.49377646      2.49010530
    H     -2.50671419     -0.34372614      2.62919543
    H     -1.22858215      0.05233328      3.44066251
    H      3.55216611     -3.38661155     -0.25629543
    H      2.50196313     -2.64791437      0.64643435
    H     -4.62228851      0.26388382      1.53457240
    H     -3.69962564     -0.47257805      0.51539928
    H      0.25118796     -2.03330385     -3.03731701
    H     -0.79629645     -0.95231114     -3.45932511
    H     -2.28613861      0.67887683     -2.81156167
    H     -2.77539774     -0.69839716     -2.28226309
    H     -0.91902389     -3.55949599      3.22649450
    H     -1.17174958     -2.05426020      2.85288456
    H      0.72276440     -4.30910967     -2.21798020
    H      1.42100615     -3.27606384     -1.28036665
    H     -4.24866723     -2.17416340     -1.04204665
    H     -2.79072198     -2.33587810     -0.48849447
    H     -0.88442051     -3.45286248     -0.62097712
    H     -1.32846236     -3.28655147      0.86819730
 
 
 
