#p b3lyp 6-311+G(3df,2p) scf=tight nosymm

H2O2

0    1
    O     -1.33050646      0.99907413      0.00000000
    H     -1.06354548      1.92108714      0.00000000
    H     -0.50513258      0.49194213      0.00000000
    O      1.00521436     -0.75126820      0.00000000
    H      0.94698508     -1.33041760     -0.76557518
    H      0.94698508     -1.33041760      0.76557518
 
 
 
