#p b3lyp 6-311+g(3df,2p) scf=tight nosymm

H2O6b

0    1
    O      0.11448392      1.51123327      0.84351297
    H      0.95880573      1.47155799      0.32950023
    H      0.26129104      2.12410912      1.56850115
    O     -0.02817040     -1.43708228      0.98511825
    H     -0.03831273     -0.48623197      1.17189380
    H     -0.86424990     -1.59839377      0.50558843
    O     -2.35379807      1.32801811     -0.46182076
    H     -1.48714231      1.50194038     -0.04531092
    H     -2.34725343      1.79416500     -1.30125669
    O     -2.46767106     -1.45760274     -0.41854610
    H     -2.53975419     -0.48503716     -0.49641687
    H     -3.26029002     -1.74564201      0.04080615
    O      2.42644955      1.14816004     -0.49586368
    H      2.48383495      0.16184557     -0.50914940
    H      2.52619219      1.43384884     -1.40718630
    O      2.27629137     -1.54900494     -0.42626723
    H      1.42256374     -1.63495392      0.06497691
    H      2.91672961     -2.08092952      0.05192006
 
 
 
