#p b3lyp 6-311+g(3df,2p) scf=tight nosymm

H2O6

0    1
    O      1.42825804     -0.40036713      1.41065844
    H      0.49628689     -0.73117228      1.52660427
    H      1.93466144     -0.70271626      2.16827596
    O      0.73729182      1.98931717     -0.06951319
    H      1.06370870      1.44579761      0.66524507
    H      1.09894638      1.53859802     -0.84481072
    O      1.62555092     -0.52608919     -1.36333215
    H      2.35461663     -0.95284440     -1.82026699
    H      1.76564661     -0.66675152     -0.40686623
    O     -1.91746266      1.24548468     -0.07588472
    H     -1.01952824      1.64533978     -0.08613044
    H     -2.54355062      1.96847539     -0.16154318
    O     -1.20378709     -1.31119928     -1.37741099
    H     -0.27178079     -1.12924981     -1.57557939
    H     -1.60901413     -0.43639748     -1.28233553
    O     -1.13157768     -1.15889858      1.42431353
    H     -1.19170478     -1.49418914      0.50620378
    H     -1.61656142     -0.32313756      1.36237247
 
 
 
