#p b3lyp 6-311+g(3df,2p) scf=tight nosymm

H3OpH2O62d

1    1
    O      1.84341330     -0.95960026     -1.48677185
    H      1.26567360     -0.73912309     -2.23491784
    O      1.07933054     -0.52718537      1.02820083
    H      1.40192842     -0.70178305      0.10699928
    O      0.00000000      0.00000000     -3.51189965
    O     -1.84341330      0.95960026     -1.48677185
    H     -1.26567360      0.73912309     -2.23491784
    O     -1.07933054      0.52718537      1.02820083
    H     -1.40192842      0.70178305      0.10699928
    H      0.00000000      0.00000000      1.03344700
    H     -2.36667603      1.72447261     -1.74182056
    H      2.36667603     -1.72447261     -1.74182056
    H     -1.77001609      0.03354964      1.53153107
    H      1.77001609     -0.03354964      1.53153107
    O     -2.99141183     -0.72410800      2.44248195
    O      2.99141183      0.72410800      2.44248195
    H      0.43342183      0.63655487     -4.09403917
    H     -0.43342183     -0.63655487     -4.09403917
    H     -3.17979166     -1.66531365      2.50114091
    H     -3.43526876     -0.30590618      3.18642170
    H      3.43526876      0.30590618      3.18642170
    H      3.17979166      1.66531365      2.50114091
 
 
 
