#p b3lyp 6-311+g(3df,2p) scf=tight nosymm

H3OpH2O

1    1
    O     -1.19972811      0.02902010      0.11574705
    H     -1.63142412     -0.73331992      0.52840646
    H     -1.69400174      0.29562364     -0.67242248
    O      1.19972811     -0.02902010      0.11574705
    H      0.00000000      0.00000000      0.05653796
    H      1.69400174     -0.29562364     -0.67242248
    H      1.63142412      0.73331992      0.52840646
 
 
 
