#p b3lyp 6-311+g(3df,2p) scf=tight nosymm

OHmH2O6

-1    1
    O      0.23099656     -1.75016030     -1.61373184
    H      0.35477040     -1.42686517     -2.50951976
    H     -0.48635990     -1.15118687     -1.22476793
    O     -0.81872767     -1.80962566      1.52573340
    H     -0.32477373     -2.46232926      1.02128576
    H     -1.16948890     -1.19087339      0.81762240
    O     -0.93563092      2.06312184      1.05591686
    H     -1.28261677      1.25422904      0.59735672
    H     -0.44029533      2.47874938      0.33729926
    O      1.03463867      0.30623616      2.18886637
    H      0.47236159     -0.48812864      2.12201769
    H      0.42328675      1.02268807      1.92836407
    O      0.26565425      1.73743714     -1.68238167
    H      1.07155763      1.31718562     -1.33580425
    H     -0.43730169      1.11679948     -1.39606019
    O      2.27037382     -0.02032578     -0.40017945
    H      1.95744426      0.10706274      0.51732166
    H      1.69198004     -0.71857522     -0.75398029
    O     -1.48542860     -0.14459153     -0.44782022
    H     -2.39244047     -0.24084766     -0.74753857
 
 
 
