#p b3lyp 6-311+g(3df,2p) scf=tight nosymm

100

0    1
    N      0.00000000      0.00000000     -2.11635772
    C      0.00000000      0.00000000     -0.96670818
    C      0.00000000      0.00000000      0.48949319
    H      0.51145108      0.88585925      0.86452423
    H      0.51145108     -0.88585925      0.86452423
    H     -1.02290216      0.00000000      0.86452423
 
 
 
