#p b3lyp 6-311+g(3df,2p) scf=tight nosymm

106

0    1
    C     -0.09898486     -1.10444760      0.00000000
    C     -0.49596117      0.35996477      0.00000000
    O     -1.65973304      0.71433021      0.00000000
    N      0.53409136      1.25435430      0.00000000
    H     -0.53286494     -1.58026665      0.87869186
    H      0.97803817     -1.26791183      0.00000000
    H     -0.53286494     -1.58026665     -0.87869186
    H      1.49483201      0.96918365      0.00000000
    H      0.31344741      2.23505980      0.00000000
 
 
 
