#p b3lyp 6-311+g(3df,2p) scf=tight nosymm

118

0    1
    C     -0.22605285      0.02049785     -1.36715662
    S      0.80173243      0.67993453      0.00000000
    O      2.07797617     -0.12245587      0.00000000
    C     -0.22605285      0.02049785      1.36715662
    H      0.28675926      0.28081003     -2.28995747
    H     -1.21252420      0.48137455     -1.34297361
    H     -0.28803651     -1.06142176     -1.26510595
    H     -1.21252420      0.48137455      1.34297361
    H     -0.28803651     -1.06142176      1.26510595
    H      0.28675926      0.28081003      2.28995747
 
 
 
