#p b3lyp 6-311+g(3df,2p) scf=tight nosymm

126

0    1
    C     -0.96294294      0.07844148      0.00000000
    C      0.53003137      0.25145372      0.00000000
    O      1.12197710      1.29926991      0.00000000
    O      1.17080864     -0.94650876      0.00000000
    H      2.11986637     -0.75512782      0.00000000
    H     -1.44169360      1.05231140      0.00000000
    H     -1.26902347     -0.48991996      0.87848752
    H     -1.26902347     -0.48991996     -0.87848752
 
 
 
