#p b3lyp 6-311+g(3df,2p) scf=tight nosymm

128

0    1
    C     -0.42309391     -0.55592376      0.00000000
    C      0.32021939      0.74958511      0.00000000
    O     -0.14801213      1.83215102      0.00000000
   Cl      2.14475018      0.53943073      0.00000000
    H     -1.06663086     -0.57613470      0.88043225
    H      0.23939819     -1.41297369      0.00000000
    H     -1.06663086     -0.57613470     -0.88043225
 
 
 
