#p b3lyp 6-311+g(3df,2p) scf=tight nosymm

33

0    1
    C     -0.34279042      0.12114935      0.00000000
    O      1.07909124      0.19851495      0.00000000
    H     -0.72836132     -0.38512781     -0.89071164
    H     -0.72836132     -0.38512781      0.89071164
    H     -0.71334689      1.14449069      0.00000000
    H      1.43376871     -0.69389936      0.00000000
 
 
 
