#p b3lyp 6-311+g(3df,2p) scf=tight nosymm

52

0    1
   Si      0.00000000      0.00000000      1.17783375
   Si      0.00000000      0.00000000     -1.17783375
    H      1.20770428     -0.69726839      1.69586582
    H      0.00000000      1.39453678      1.69586582
    H     -1.20770428     -0.69726839      1.69586582
    H      1.20770428      0.69726839     -1.69586582
    H      0.00000000     -1.39453678     -1.69586582
    H     -1.20770428      0.69726839     -1.69586582
 
 
 
