#p b3lyp 6-311+g(3df,2p) scf=tight nosymm

62

0    1
    C      0.00000000      0.00000000      0.00000000
   Cl      1.03344579     -1.03344579      1.03344579
   Cl     -1.03344579      1.03344579      1.03344579
   Cl     -1.03344579     -1.03344579     -1.03344579
   Cl      1.03344579      1.03344579     -1.03344579
 
 
 
