#p b3lyp 6-311+g(3df,2p) scf=tight nosymm

66

0    1
   Si      0.00000000      0.00000000      0.00000000
    F      0.91020179     -0.91020179      0.91020179
    F     -0.91020179      0.91020179      0.91020179
    F     -0.91020179     -0.91020179     -0.91020179
    F      0.91020179      0.91020179     -0.91020179
 
 
 
