#p b3lyp 6-311+g(3df,2p) scf=tight nosymm

67

0    1
   Si      0.00000000      0.00000000      0.00000000
   Cl      1.18252820     -1.18252820      1.18252820
   Cl     -1.18252820      1.18252820      1.18252820
   Cl     -1.18252820     -1.18252820     -1.18252820
   Cl      1.18252820      1.18252820     -1.18252820
 
 
 
