#p b3lyp 6-311+g(3df,2p) scf=tight nosymm

82

0    1
    C     -0.43451646      0.75260459      0.00000000
    C     -0.43451646     -0.75260459      0.00000000
    C      0.86903293      0.00000000      0.00000000
    H     -0.72760991      1.26025734      0.90813070
    H     -0.72760991      1.26025734     -0.90813070
    H     -0.72760991     -1.26025734      0.90813070
    H     -0.72760991     -1.26025734     -0.90813070
    H      1.45521982      0.00000000     -0.90813070
    H      1.45521982      0.00000000      0.90813070
 
 
 
