#p b3lyp 6-311+g(3df,2p) scf=tight nosymm

94

0    1
    C      1.20481140      0.69559819      0.00000000
    C      1.20481140     -0.69559819      0.00000000
    C      0.00000000     -1.39119638      0.00000000
    C     -1.20481140     -0.69559819      0.00000000
    C     -1.20481140      0.69559819      0.00000000
    C      0.00000000      1.39119638      0.00000000
    H      2.14201767      1.23669448      0.00000000
    H      2.14201767     -1.23669448      0.00000000
    H      0.00000000     -2.47338895      0.00000000
    H     -2.14201767     -1.23669448      0.00000000
    H     -2.14201767      1.23669448      0.00000000
    H      0.00000000      2.47338895      0.00000000
 
 
 
