#p b3lyp 6-311+g(3df,2p) scf=tight nosymm

97

0    1
   Cl      0.00000000      1.49399244      0.83464440
    C      0.00000000      0.00000000     -0.15559821
   Cl      0.00000000     -1.49399244      0.83464440
    H      0.89864944      0.00000000     -0.75684529
    H     -0.89864944      0.00000000     -0.75684529
 
 
 
