#p b3lyp 6-311+g(3df,2p) scf=tight nosymm

bz

0    1
    C      1.20827160      0.69759594      0.00000000
    C      1.20827160     -0.69759594      0.00000000
    C      0.00000000     -1.39519187      0.00000000
    C     -1.20827160     -0.69759594      0.00000000
    C     -1.20827160      0.69759594      0.00000000
    C      0.00000000      1.39519187      0.00000000
    H      2.14522382      1.23854555      0.00000000
    H      2.14522382     -1.23854555      0.00000000
    H      0.00000000     -2.47709110      0.00000000
    H     -2.14522382     -1.23854555      0.00000000
    H     -2.14522382      1.23854555      0.00000000
    H      0.00000000      2.47709110      0.00000000
 
 
 
