#p b3lyp 6-311+g(3df,2p) scf=tight nosymm

bz_li+

1    1
    C      1.21471200      0.70131430     -0.13866462
    C      1.21471200     -0.70131430     -0.13866462
    C      0.00000000     -1.40262860     -0.13866462
    C     -1.21471200     -0.70131430     -0.13866462
    C     -1.21471200      0.70131430     -0.13866462
    C      0.00000000      1.40262860     -0.13866462
    H      2.15103298      1.24189947     -0.14922002
    H      2.15103298     -1.24189947     -0.14922002
    H      0.00000000     -2.48379894     -0.14922002
    H     -2.15103298     -1.24189947     -0.14922002
    H     -2.15103298      1.24189947     -0.14922002
    H      0.00000000      2.48379894     -0.14922002
   Li      0.00000000      0.00000000      1.72730783
 
 
 
