#p b3lyp 6-311+g(3df,2p) scf=tight nosymm

bz_na+

1    1
    C      1.21303359      0.70034527     -0.17011686
    C      1.21303359     -0.70034527     -0.17011686
    C      0.00000000     -1.40069055     -0.17011686
    C     -1.21303359     -0.70034527     -0.17011686
    C     -1.21303359      0.70034527     -0.17011686
    C      0.00000000      1.40069055     -0.17011686
    H      2.14929409      1.24089552     -0.20572985
    H      2.14929409     -1.24089552     -0.20572985
    H      0.00000000     -2.48179105     -0.20572985
    H     -2.14929409     -1.24089552     -0.20572985
    H     -2.14929409      1.24089552     -0.20572985
    H      0.00000000      2.48179105     -0.20572985
   Na      0.00000000      0.00000000      2.25508024
 
 
 
