#p b3lyp 6-311+g(3df,2p) scf=tight nosymm

k8

0    1
    K      2.62389040     -2.62389040      2.62389040
    K     -2.62389040      2.62389040      2.62389040
    K      2.62389040      2.62389040     -2.62389040
    K     -2.62389040     -2.62389040     -2.62389040
    K      1.61747143      1.61747143      1.61747143
    K     -1.61747143      1.61747143     -1.61747143
    K     -1.61747143     -1.61747143      1.61747143
    K      1.61747143     -1.61747143     -1.61747143
 
 
 
