#p b3lyp 6-311+g(3df,2p) scf=tight nosymm

li8

0    1
   Li      1.71483587     -1.71483587      1.71483587
   Li     -1.71483587      1.71483587      1.71483587
   Li      1.71483587      1.71483587     -1.71483587
   Li     -1.71483587     -1.71483587     -1.71483587
   Li      0.99434597      0.99434597      0.99434597
   Li     -0.99434597      0.99434597     -0.99434597
   Li     -0.99434597     -0.99434597      0.99434597
   Li      0.99434597     -0.99434597     -0.99434597
 
 
 
