#p b3lyp 6-311+g(3df,2p) scf=tight nosymm

na8

0    1
   Na      1.98266742     -1.98266742      1.98266742
   Na     -1.98266742      1.98266742      1.98266742
   Na      1.98266742      1.98266742     -1.98266742
   Na     -1.98266742     -1.98266742     -1.98266742
   Na      1.23020886      1.23020886      1.23020886
   Na     -1.23020886      1.23020886     -1.23020886
   Na     -1.23020886     -1.23020886      1.23020886
   Na      1.23020886     -1.23020886     -1.23020886
 
 
 
