#p b3lyp 6-311+g(3df,2p) scf=tight nosymm

al2h6

0    1
   Al      0.00000000      0.00000000      1.30656365
   Al      0.00000000      0.00000000     -1.30656365
    H      0.00000000      1.14549256      0.00000000
    H      0.00000000     -1.14549256      0.00000000
    H     -1.41072077      0.00000000      1.99677295
    H      1.41072077      0.00000000      1.99677295
    H      1.41072077      0.00000000     -1.99677295
    H     -1.41072077      0.00000000     -1.99677295
 
 
 
