#p b3lyp 6-311+g(3df,2p) scf=tight nosymm

al2me5

0    1
    C      0.36857975      1.70212346      2.27886097
   Al      0.24392038     -0.00630984      1.31136899
    C      0.27052778     -1.79177551      2.14027981
    C     -1.45966994      0.19542047      0.00000000
   Al      0.24392038     -0.00630984     -1.31136899
    C      0.36857975      1.70212346     -2.27886097
    H      1.37217295     -0.00989279      0.00000000
    C      0.27052778     -1.79177551     -2.14027981
    H      1.21663693     -1.98044196     -2.65257157
    H      0.13336804     -2.59100346     -1.40913539
    H     -0.51974023     -1.89560245     -2.88835413
    H      1.27356741      1.75281936     -2.88820823
    H     -0.47840665      1.83541131     -2.95667507
    H      0.38203059      2.55870085     -1.60224099
    H      1.21663693     -1.98044196      2.65257157
    H     -0.51974023     -1.89560245      2.88835413
    H      0.13336804     -2.59100346      1.40913539
    H      1.27356741      1.75281936      2.88820823
    H      0.38203059      2.55870085      1.60224099
    H     -0.47840665      1.83541131      2.95667507
    H     -1.95863814     -0.29579889      0.84542387
    H     -1.77619470      1.23822659      0.00000000
    H     -1.95863814     -0.29579889     -0.84542387
 
 
 
