#p b3lyp 6-311+g(3df,2p) scf=tight nosymm

alme2

0    1
    C      0.00000000     -1.73000836      0.24260868
   Al      0.00000000      0.00000000     -0.69738917
    C      0.00000000      1.73000836      0.24260868
    H      0.00000000      0.00000000     -2.28535720
    H      0.00000000     -1.63396193      1.32844282
    H      0.87344265     -2.32376398     -0.03983915
    H     -0.87344265     -2.32376398     -0.03983915
    H     -0.87344265      2.32376398     -0.03983915
    H      0.87344265      2.32376398     -0.03983915
    H      0.00000000      1.63396193      1.32844282
 
 
 
