#p b3lyp/6-31G scf=tight

pccp5

0 1
 C   0.   -0.00014   1.859161
 H   -0.888551   0.51306   1.494685
 H   0.888551   0.51306   1.494685
 H   0.   -1.026339   1.494868
 H   0.   0.000089   2.948284
 C   0.   0.00014   -1.859161
 H   0.   -0.000089   -2.948284
 H   -0.888551   -0.51306   -1.494685
 H   0.888551   -0.51306   -1.494685
 H   0.   1.026339   -1.494868

