%nproc=8
#P B3LYP/6-311+g(3df,2p) scf=tight iop(5/33=1)
extraoverlay

8/10=90/1;9/16=-3/6;
3/5=7,6=2,8=1,11=2,16=1,25=1,30=1,67=1,74=205/1,2,3;
5/5=2,6=-2,32=1,33=1,38=5/2;

NH3-NH3  HB1

0   1
      N              1.575225    0.000085   -0.042607
      H              2.131108    0.813949   -0.286614
      H              1.496450   -0.002936    0.970257
      H              2.131721   -0.811892   -0.291453
      N             -1.688245    0.000083    0.104848
      H             -2.126403   -0.812680   -0.317310
      H             -2.127442    0.811842   -0.318158
      H             -0.714297    0.000543   -0.192407
 




