%nproc=8
#P B3LYP/6-311+g(3df,2p) scf=tight iop(5/33=1)
extraoverlay

8/10=90/1;9/16=-3/6;
3/5=7,6=2,8=1,11=2,16=1,25=1,30=1,67=1,74=205/1,2,3;
5/5=2,6=-2,32=1,33=1,38=5/2;

C2H2-ClF  CT3
   
0   1
      H                 0.000000    1.671891   -2.212555 
      C                -0.000000    0.605293   -2.199559 
      C                -0.000000   -0.605293   -2.199559 
      H                -0.000000   -1.671891   -2.212555
     Cl                 0.000000   -0.000000    0.611880 
      F                 0.000000   -0.000000    2.268651 
      
      


