%nproc=8
#P B3LYP/6-311+g(3df,2p) scf=tight iop(5/33=1)
extraoverlay

8/10=90/1;9/16=-3/6;
3/5=7,6=2,8=1,11=2,16=1,25=1,30=1,67=1,74=205/1,2,3;
5/5=2,6=-2,32=1,33=1,38=5/2;

H2O-ClF  CT6

0   1
      O                 2.239819    0.000027   -0.088231
      H                 2.600887    0.761963    0.377055
      H                 2.601087   -0.761727    0.377194
     Cl                -0.315868   -0.000066   -0.016914
      F                -1.972308    0.000074    0.026570




