%nproc=8
#P B3LYP/6-311+g(3df,2p) scf=tight iop(5/33=1)
extraoverlay

8/10=90/1;9/16=-3/6;
3/5=7,6=2,8=1,11=2,16=1,25=1,30=1,67=1,74=205/1,2,3;
5/5=2,6=-2,32=1,33=1,38=5/2;

H2S-H2S   DI1

0   1
      S          -2.030996    0.103233   -0.000782
      H          -1.934020   -0.818462    0.969676
      H          -1.940450   -0.836616   -0.954299
      S           2.079838   -0.085112    0.000181
      H           2.339154    1.231019   -0.002214
      H           0.753848    0.134121   -0.003537
      
      
      
