%nproc=8
#P B3LYP/6-311+g(3df,2p) scf=tight iop(5/33=1)
extraoverlay

8/10=90/1;9/16=-3/6;
3/5=7,6=2,8=1,11=2,16=1,25=1,30=1,67=1,74=205/1,2,3;
5/5=2,6=-2,32=1,33=1,38=5/2;

HCl-HCl   DI2

0   1
     Cl           1.860824   -0.065411   -0.000068
      H           1.753941    1.210981    0.000341
     Cl          -1.925266    0.005571   -0.000097
      H          -0.658427   -0.193703    0.002476



