%nproc=8
#P B3LYP/6-311+g(3df,2p) scf=tight iop(5/33=1)
extraoverlay

8/10=90/1;9/16=-3/6;
3/5=7,6=2,8=1,11=2,16=1,25=1,30=1,67=1,74=205/1,2,3;
5/5=2,6=-2,32=1,33=1,38=5/2;

H2S-HCl   DI3

0   1
      S                 1.842529    0.000013   -0.101543
      H                 1.822779   -0.961810    0.834650
      H                 1.821877    0.961860    0.834622
     Cl                -1.911636   -0.000011    0.003498
      H                -0.627317   -0.000058   -0.104051
      
      
