%nproc=8
#P B3LYP/6-311+g(3df,2p) scf=tight iop(5/33=1)
extraoverlay

8/10=90/1;9/16=-3/6;
3/5=7,6=2,8=1,11=2,16=1,25=1,30=1,67=1,74=205/1,2,3;
5/5=2,6=-2,32=1,33=1,38=5/2;

CH3Cl-HCl  DI4

0   1
      C               -1.495128    1.125799   -0.000002
     Cl               -1.402476   -0.662544    0.000139
      H               -0.481069    1.518361   -0.001216
      H               -2.027181    1.435163    0.895312
      H               -2.029240    1.434923   -0.894172
     Cl                2.139608    0.037298   -0.000138
      H                0.977002   -0.514054    0.000072




