%nproc=8
#P B3LYP/6-311+g(3df,2p) scf=tight iop(5/33=1)
extraoverlay

8/10=90/1;9/16=-3/6;
3/5=7,6=2,8=1,11=2,16=1,25=1,30=1,67=1,74=205/1,2,3;
5/5=2,6=-2,32=1,33=1,38=5/2;

CH3SH-HCl  DI6

0   1
      C          -1.447648    1.155649    0.018513 
      S          -1.414595   -0.659846   -0.083544 
      H          -1.466284    1.516816   -1.009880 
      H          -0.552971    1.535265    0.510012 
      H          -2.344239    1.497733    0.531863 
      H          -1.377361   -0.890921    1.238214 
     Cl           2.125766    0.024081    0.003156 
      H           0.922238   -0.444635   -0.098247 




