%nproc=8
#P B3LYP/6-311+g(3df,2p) scf=tight iop(5/33=1)
extraoverlay

8/10=90/1;9/16=-3/6;
3/5=7,6=2,8=1,11=2,16=1,25=1,30=1,67=1,74=205/1,2,3;
5/5=2,6=-2,32=1,33=1,38=5/2;

HCONH2
   
0  1 
      C                 -.160685     .388399    -.000538
      O                -1.195705    -.246392     .000189
      N                 1.083300    -.158419    -.000291
      H                 -.139918    1.490350     .001393
      H                 1.182258   -1.160415     .001116
      H                 1.904316     .419735     .001245



