%nproc=8
#P B3LYP/6-311+g(3df,2p) scf=tight iop(5/33=1)
extraoverlay

8/10=90/1;9/16=-3/6;
3/5=7,6=2,8=1,11=2,16=1,25=1,30=1,67=1,74=205/1,2,3;
5/5=2,6=-2,32=1,33=1,38=5/2;

CH4-Ne  WI2
   
0   1
     Ne           0.000705   -0.035049   -1.742602
      C          -0.000705    0.035048    1.742577
      H          -0.001157    0.057524    2.831863
      H          -0.021214    1.054308    1.358368
      H          -0.879607   -0.503714    1.390162
      H           0.899157   -0.467924    1.390162


