%nproc=8
#P B3LYP/6-311+g(3df,2p) scf=tight iop(5/33=1)
extraoverlay

8/10=90/1;9/16=-3/6;
3/5=7,6=2,8=1,11=2,16=1,25=1,30=1,67=1,74=205/1,2,3;
5/5=2,6=-2,32=1,33=1,38=5/2;

C2H4-C2H4

0   1
      C                  1.857768    0.472803    0.472425
      C                  1.857768   -0.472803   -0.472425
      H                  0.933772    0.874688    0.874063
      H                  2.783818    0.871709    0.871556
      H                  2.783818   -0.871709   -0.871556
      H                  0.933772   -0.874688   -0.874063
      C                 -1.857768    0.472803   -0.472425
      C                 -1.857768   -0.472803    0.472425
      H                 -2.783818    0.871709   -0.871556
      H                 -0.933772    0.874688   -0.874063
      H                 -0.933772   -0.874688    0.874063
      H                 -2.783818   -0.871709    0.871556
      


