%nproc=8
#P B3LYP/6-311+g(3df,2p) scf=tight iop(5/33=1)
extraoverlay

8/10=90/1;9/16=-3/6;
3/5=7,6=2,8=1,11=2,16=1,25=1,30=1,67=1,74=205/1,2,3;
5/5=2,6=-2,32=1,33=1,38=5/2;

Estimated CCSD(T)/aug-cc-pVQZ* Level of Theory using Frozen Monomers
(C-C=1.3915, C-H=1.0800) Angstroms

0 1
C      1.391500000000    -0.000000000000     2.495750000000
H      2.471500000000    -0.000000000000     2.495750000000
C      0.695750000000     1.205074349366     2.495750000000
H      1.235750000000     2.140381785453     2.495750000000
C      0.695750000000    -1.205074349366     2.495750000000
H      1.235750000000    -2.140381785453     2.495750000000
C     -0.695750000000     1.205074349366     2.495750000000
H     -1.235750000000     2.140381785453     2.495750000000
C     -0.695750000000    -1.205074349366     2.495750000000
H     -1.235750000000    -2.140381785453     2.495750000000
C     -1.391500000000    -0.000000000000     2.495750000000
H     -2.471500000000    -0.000000000000     2.495750000000



  



