%nproc=8
#P TPSSTPSS/6-311+g(3df,2p) scf=tight iop(3/76=0500005000,5/33=1) 

11; geometry from JPCA, 2005, 109, 2012-2018

0 1
 C     0.000000     0.000000     0.000000
 C     0.000000     0.000000     1.526184
 H     1.016067     0.000000     1.921404
 H     0.509595    -0.879039    -0.395218
 H    -0.508029    -0.879945     1.921402
 H    -0.508041     0.879938     1.921401
 H    -1.016066    -0.001803    -0.395218
 H     0.506470     0.880843    -0.395217




