%nproc=8
#P TPSSTPSS/6-311+g(3df,2p) scf=tight iop(3/76=0500005000,5/33=1) 

16; geometry from JPCA, 2005, 109, 2012-2018

0 1
P        0.000000    0.000000    0.126411
H        1.191339    0.000000   -0.632056
H       -0.595669   -1.031730   -0.632056
H       -0.595669    1.031730   -0.632056

 



