%nproc=8
#P TPSSTPSS/6-311+g(3df,2p) scf=tight iop(3/76=0500005000,5/33=1) 

21; geometry from JPCA, 2005, 109, 2012-2018

0 1
C       -2.055638   -0.612272    0.000007
C       -1.231096    0.640448    0.000049
C        0.105634    0.734273    0.000026
C        1.057555   -0.374407   -0.000044
C        2.383583   -0.198936   -0.000036
H       -2.705085   -0.641597    0.877132
H       -2.705129   -0.641508   -0.877089
H       -1.451332   -1.516079   -0.000055
H       -1.793665    1.567586    0.000103
H        0.545756    1.725643    0.000064
H        0.665262   -1.383242   -0.000105
H        3.064689   -1.037719   -0.000088
H        2.819275    0.792285    0.000023

 



