%nproc=8
#P TPSSTPSS/6-311+g(3df,2p) scf=tight iop(3/76=0500005000,5/33=1) 

8; geometry from JPCA, 2005, 109, 2012-2018

0  1
 C     0.000000     0.000000     0.000000
 H     0.000000     0.000000     1.087445
 H     1.025253     0.000000    -0.362482
 H    -0.512627     0.887895    -0.362482
 H    -0.512627    -0.887895    -0.362482




