#p b3lyp/6-31G scf=tight

pccp3

0 1
 N   -1.578718   -0.046611   0.
 H   -2.158621   0.136396   -0.809565
 H   -2.158621   0.136396   0.809565
 H   -0.849471   0.658193   0.
 N   1.578718   0.046611   0.
 H   2.158621   -0.136396   -0.809565
 H   0.849471   -0.658193   0.
 H   2.158621   -0.136396   0.809565

