#p b3lyp 6-311+g(3df,2p) scf=tight nosymm

E10

0    1
    C      0.88790030      0.88790030     -0.88790030
    C      0.00000000      0.00000000      0.00000000
    C     -0.88790030     -0.88790030     -0.88790030
    C      0.88790030     -0.88790030      0.88790030
    C     -0.88790030      0.88790030      0.88790030
    H      1.53173284      0.28224124     -1.53173284
    H      0.28224124      1.53173284     -1.53173284
    H      1.53173284      1.53173284     -0.28224124
    H     -0.28224124     -1.53173284     -1.53173284
    H     -1.53173284     -1.53173284     -0.28224124
    H     -1.53173284     -0.28224124     -1.53173284
    H      1.53173284     -1.53173284      0.28224124
    H      1.53173284     -0.28224124      1.53173284
    H      0.28224124     -1.53173284      1.53173284
    H     -1.53173284      1.53173284      0.28224124
    H     -1.53173284      0.28224124      1.53173284
    H     -0.28224124      1.53173284      1.53173284
 
 
 
