#p b3lyp 6-311+g(3df,2p) scf=tight nosymm

E11

0    1
    C     -0.12429039      1.43182749     -1.35712077
    C      0.00000000      0.00000000     -0.79483116
    C      0.00000000      0.00000000      0.79483116
    C     -0.12429039     -1.43182749      1.35712077
    C     -1.17785379     -0.82355238     -1.35712077
    C      1.30214418     -0.60827512     -1.35712077
    C     -1.17785379      0.82355238      1.35712077
    C      1.30214418      0.60827512      1.35712077
    H     -1.09539126      1.87701451     -1.13485469
    H      0.64942055      2.09749315     -0.96959363
    H     -0.01857205      1.41069941     -2.44493238
    H     -1.09539126     -1.87701451      1.13485469
    H      0.64942055     -2.09749315      0.96959363
    H     -0.01857205     -1.41069941      2.44493238
    H     -2.14119263     -0.48633188     -0.96959363
    H     -1.21241550     -0.72143357     -2.44493238
    H     -1.07784662     -1.88714391     -1.13485469
    H      2.17323788      0.01012940     -1.13485469
    H      1.49177208     -1.61116127     -0.96959363
    H      1.23098755     -0.68926584     -2.44493238
    H     -2.14119263      0.48633188      0.96959363
    H     -1.21241550      0.72143357      2.44493238
    H     -1.07784662      1.88714391      1.13485469
    H      2.17323788     -0.01012940      1.13485469
    H      1.49177208      1.61116127      0.96959363
    H      1.23098755      0.68926584      2.44493238
 
 
 
