#p b3lyp 6-311+g(3df,2p) scf=tight nosymm

E14

0    1
    C      0.00000000      0.00000000      0.48865287
    C      0.00000000      0.00000000     -0.96688357
    N      0.00000000      0.00000000     -2.11787959
    H      0.51196222     -0.88674458      0.86537010
    H      0.51196222      0.88674458      0.86537010
    H     -1.02392445      0.00000000      0.86537010
 
 
 
