#p b3lyp 6-311+g(3df,2p) scf=tight nosymm

E20

0    1
    N      0.00000000      1.40201909      0.00000000
    C     -1.13133171      0.69633208      0.00000000
    C     -1.13133171     -0.69633208      0.00000000
    N      0.00000000     -1.40201909      0.00000000
    C      1.13133171     -0.69633208      0.00000000
    C      1.13133171      0.69633208      0.00000000
    H     -2.06197283      1.25418593      0.00000000
    H     -2.06197283     -1.25418593      0.00000000
    H      2.06197283     -1.25418593      0.00000000
    H      2.06197283      1.25418593      0.00000000
 
 
 
