#p b3lyp 6-311+g(3df,2p) scf=tight nosymm

E27

0    1
    O     -0.19406076      0.79739274     -1.24754489
    C      0.26247187     -0.38598231     -0.58046429
    C     -0.32117133     -0.35455087      0.81734976
    O      0.13359164      0.76868704      1.55861148
    H      0.31228524      0.92263345     -2.05616499
    H     -0.04828893      1.54811306      1.01818574
    H     -0.07634356     -1.28870353     -1.10504151
    H      1.35679588     -0.39913551     -0.52010439
    H     -0.00816618     -1.24448358      1.36656177
    H     -1.41711385     -0.36397049      0.74861133
 
 
 
