#p b3lyp 6-311+g(3df,2p) scf=tight nosymm

E28

0    1
    C      0.00000000     -1.28975584     -0.15533893
    C      0.00000000      0.00000000      0.64223782
    C      0.00000000      1.28975584     -0.15533893
    O      0.00000000      0.00000000      1.85314297
    H      0.00000000     -2.14446962      0.51833769
    H      0.87859226     -1.33409446     -0.80534458
    H     -0.87859226     -1.33409446     -0.80534458
    H      0.00000000      2.14446962      0.51833769
    H      0.87859226      1.33409446     -0.80534458
    H     -0.87859226      1.33409446     -0.80534458
 
 
 
