#p b3lyp 6-311+g(3df,2p) scf=tight nosymm

E31

0    1
    C      0.22259259      1.42799813      0.02723212
    C     -0.97436060      0.49751728     -0.13040233
    C     -0.41680156     -0.87383435      0.25408915
    C      1.06882298     -0.72158791     -0.09552631
    O      1.36453901      0.68260631      0.07749465
    O      0.23335204      2.62270411      0.09577056
    H     -1.29093805      0.53692757     -1.17703075
    H     -1.80453107      0.84823166      0.47961713
    H     -0.53487838     -1.04496276      1.32593971
    H     -0.88192758     -1.70472717     -0.27573785
    H      1.27495165     -0.98951293     -1.13553098
    H      1.73917897     -1.28135995      0.55408491
 
 
 
