#p b3lyp 6-311+g(3df,2p) scf=tight nosymm

E32

0    1
    C     -1.67253255      0.01861594      0.17262266
    C     -0.85418901      0.11566454     -1.10767347
    C      0.61930098     -0.27682639     -0.98484109
    C      1.19448765      0.32950740      0.29172292
    C      0.40303023     -0.17299047      1.48424481
    O     -1.02507334      0.03376823      1.36595001
    O     -2.87439478      0.00120880      0.16605517
    H     -0.93585978      1.16350355     -1.41798726
    H     -1.38018013     -0.46684210     -1.86427239
    H      0.71518495     -1.36698337     -0.94428165
    H      1.17014126      0.05538144     -1.86736059
    H      1.14852383      1.42244033      0.24495081
    H      2.24344143      0.05397975      0.42924259
    H      0.56621490     -1.24642277      1.62530141
    H      0.68190436      0.33599512      2.40632607
 
 
 
