#p b3lyp 6-311+g(3df,2p) scf=tight nosymm

E4

0    1
    C     -1.95848149     -0.08986343      0.00000000
    C     -0.53829219      0.39058597      0.00000000
    C      0.53829219     -0.39058597      0.00000000
    C      1.95848149      0.08986343      0.00000000
    H     -2.01216151     -1.18054743      0.00000000
    H     -2.50075390      0.27605920     -0.87805711
    H     -2.50075390      0.27605920      0.87805711
    H     -0.39879113      1.47086761      0.00000000
    H      0.39879113     -1.47086761      0.00000000
    H      2.01216151      1.18054743      0.00000000
    H      2.50075390     -0.27605920      0.87805711
    H      2.50075390     -0.27605920     -0.87805711
 
 
 
