#p b3lyp 6-311+g(3df,2p) scf=tight nosymm

E5

0    1
    C      0.00000000     -1.27422369     -0.58431032
    C      0.00000000      0.00000000      0.21760939
    C      0.00000000      1.27422369     -0.58431032
    C      0.00000000      0.00000000      1.54963654
    H      0.00000000     -2.15656070      0.05667758
    H      0.87802311     -1.32431779     -1.23710727
    H     -0.87802311     -1.32431779     -1.23710727
    H      0.00000000      2.15656070      0.05667758
    H      0.87802311      1.32431779     -1.23710727
    H     -0.87802311      1.32431779     -1.23710727
    H      0.00000000     -0.92303401      2.11822432
    H      0.00000000      0.92303401      2.11822432
 
 
 
