#p b3lyp 6-311+g(3df,2p) scf=tight nosymm

P11

0    1
    C     -4.49170139     -0.26562226      0.00000000
    C     -3.18736434      0.53320324      0.00000000
    C     -1.93605318     -0.34906820      0.00000000
    C     -0.62528622      0.44163962      0.00000000
    C      0.62528622     -0.44163962      0.00000000
    C      1.93605318      0.34906820      0.00000000
    C      3.18736434     -0.53320324      0.00000000
    C      4.49170139      0.26562226      0.00000000
    H     -5.36385356      0.39257857      0.00000000
    H     -4.56137865     -0.90841865     -0.88207692
    H     -4.56137865     -0.90841865      0.88207692
    H     -3.16330446      1.19190734      0.87541919
    H     -3.16330446      1.19190734     -0.87541919
    H     -1.96084598     -1.00870862      0.87598345
    H     -1.96084598     -1.00870862     -0.87598345
    H     -0.60148334      1.10108265      0.87598464
    H     -0.60148334      1.10108265     -0.87598464
    H      0.60148334     -1.10108265      0.87598464
    H      0.60148334     -1.10108265     -0.87598464
    H      1.96084598      1.00870862      0.87598345
    H      1.96084598      1.00870862     -0.87598345
    H      3.16330446     -1.19190734      0.87541919
    H      3.16330446     -1.19190734     -0.87541919
    H      4.56137865      0.90841865      0.88207692
    H      5.36385356     -0.39257857      0.00000000
    H      4.56137865      0.90841865     -0.88207692
 
 
 
