#p b3lyp 6-311+g(3df,2p) scf=tight nosymm

P12

0    1
    C      1.24201071      0.66554726     -0.58120802
    C      1.24201071     -0.66554726     -0.58120802
    C      0.00000000     -1.12164890      0.21150049
    C     -1.24201071     -0.66554726     -0.58120802
    C     -1.24201071      0.66554726     -0.58120802
    C      0.00000000      1.12164890      0.21150049
    C      0.00000000      0.00000000      1.29565544
    H      1.93016660      1.33333696     -1.08006054
    H      1.93016660     -1.33333696     -1.08006054
    H      0.00000000     -2.15619172      0.54783285
    H     -1.93016660     -1.33333696     -1.08006054
    H     -1.93016660      1.33333696     -1.08006054
    H      0.00000000      2.15619172      0.54783285
    H      0.89792376      0.00000000      1.91537605
    H     -0.89792376      0.00000000      1.91537605
 
 
 
