#p b3lyp 6-311+g(3df,2p) scf=tight nosymm

P13

0    1
    C     -1.57845162     -0.63319189      0.37344637
    C     -1.57845162      0.63319189     -0.37344637
    C     -0.63319189      1.57845162     -0.37344637
    C      0.63319189      1.57845162      0.37344637
    C      1.57845162      0.63319189      0.37344637
    C      1.57845162     -0.63319189     -0.37344637
    C      0.63319189     -1.57845162     -0.37344637
    C     -0.63319189     -1.57845162      0.37344637
    H     -2.49315756     -0.83882901      0.92587549
    H     -2.49315756      0.83882901     -0.92587549
    H     -0.83882901      2.49315756     -0.92587549
    H      0.83882901      2.49315756      0.92587549
    H      2.49315756      0.83882901      0.92587549
    H      2.49315756     -0.83882901     -0.92587549
    H      0.83882901     -2.49315756     -0.92587549
    H     -0.83882901     -2.49315756      0.92587549
 
 
 
