#p b3lyp 6-311+g(3df,2p) scf=tight nosymm

P16

0    1
    C     -0.09646221     -0.24647003     -0.74131416
    C     -0.09646221     -0.24647003      0.74131416
    N     -0.18959714      1.02039605      0.00000000
    H     -0.99395635     -0.52548782     -1.28088854
    H      0.83171794     -0.48683516     -1.24977971
    H     -0.99395635     -0.52548782      1.28088854
    H      0.83171794     -0.48683516      1.24977971
    H      0.70699839      1.49718997      0.00000000
 
 
 
