#p b3lyp 6-311+g(3df,2p) scf=tight nosymm

P18

0    1
    C     -1.12325363      0.36103318     -0.03955921
    C     -0.02548247     -0.62868889      0.41684315
    C      1.04141698      0.40716118     -0.06359687
    C     -0.06345831      1.49399804     -0.00246346
    N     -0.10010763     -1.98259244     -0.09364801
    H     -2.01482128      0.45523205      0.58162478
    H     -1.43372663      0.14207440     -1.06508646
    H     -0.01195496     -0.68547687      1.50888741
    H      1.34088740      0.19974353     -1.09488794
    H      1.93854193      0.54366626      0.54369154
    H     -0.06442838      2.01793825      0.95509276
    H     -0.08819301      2.23344144     -0.80298382
    H     -0.04743913     -1.99577215     -1.10690244
    H      0.65201912     -2.56175799      0.26298857
 
 
 
