#p b3lyp 6-311+g(3df,2p) scf=tight nosymm

P26

0    1
    O     -1.74355934      0.45459344      0.00000000
    C     -1.17609419     -0.60360526      0.00000000
    O      0.15223864     -0.78321448      0.00000000
    C      0.95517382      0.41642660      0.00000000
    H     -1.66949464     -1.58441008      0.00000000
    H      1.98651865      0.07517554      0.00000000
    H      0.74760853      1.01251711      0.88857058
    H      0.74760853      1.01251711     -0.88857058
 
 
 
