#p b3lyp 6-311+g(3df,2p) scf=tight nosymm

P3

0    1
    C     -0.43466099      0.75285492      0.00000000
    C     -0.43466099     -0.75285492      0.00000000
    C      0.86932198      0.00000000      0.00000000
    H     -0.72867094      1.26209509      0.90912947
    H     -0.72867094      1.26209509     -0.90912947
    H     -0.72867094     -1.26209509      0.90912947
    H     -0.72867094     -1.26209509     -0.90912947
    H      1.45734188      0.00000000     -0.90912947
    H      1.45734188      0.00000000      0.90912947
 
 
 
