#p b3lyp 6-311+g(3df,2p) scf=tight nosymm

P30

0    1
    O      0.11206145      0.00047769      2.43884781
    C      0.67872139     -0.00130301      1.36286496
    N      0.07325709     -0.00319318      0.14429934
    C     -1.37592248     -0.00030182      0.04110677
    C      0.83802469      0.00072754     -1.08695507
    H      1.78034587     -0.00227940      1.27678716
    H     -1.79145805     -0.01789313      1.04590864
    H     -1.72363316     -0.87877068     -0.51105500
    H     -1.72420717      0.89760215     -0.47892945
    H      1.90371217     -0.00238248     -0.85663108
    H      0.61272064     -0.88358680     -1.69168834
    H      0.61637757      0.89090312     -1.68455576
 
 
 
