#p b3lyp 6-311+g(3df,2p) scf=tight nosymm

P32

0    1
    C      0.87567615     -2.05068555      0.37030312
    C      1.08521364     -0.61438316     -0.04015327
    C      0.00000000      0.00000000     -0.93355012
    C     -1.08521364      0.61438316     -0.04015327
    C     -0.87567615      2.05068555      0.37030312
    O      2.03248017      0.04443690      0.32436805
    O     -2.03248017     -0.04443690      0.32436805
    H      0.99417781     -2.69845576     -0.50399304
    H     -0.14399548     -2.19610089      0.73634042
    H      1.60057300     -2.33435952      1.13093984
    H      0.46793445      0.76847201     -1.55103006
    H     -0.46793445     -0.76847201     -1.55103006
    H     -0.99417781      2.69845576     -0.50399304
    H      0.14399548      2.19610089      0.73634042
    H     -1.60057300      2.33435952      1.13093984
 
 
 
